                                  MODFLOW-NWT-SWR1 
      U.S. GEOLOGICAL SURVEY MODULAR FINITE-DIFFERENCE GROUNDWATER-FLOW MODEL
                            VERSION 1.2.0 03/01/2020
                    BASED ON MODFLOW-2005 VERSION 1.12.00 02/03/2017

 LIST FILE: ./output/high/Agwater1_high.lst
                         UNIT    9

 OPENING ./input/Agwater1.ba6
 FILE TYPE:BAS6   UNIT   75   STATUS:OLD    
 FORMAT:FORMATTED              ACCESS:SEQUENTIAL          

 OPENING ./input/Agwater1.upw
 FILE TYPE:UPW   UNIT    7   STATUS:OLD    
 FORMAT:FORMATTED              ACCESS:SEQUENTIAL          

 OPENING ./input/Agwater1.dis
 FILE TYPE:DIS   UNIT    8   STATUS:OLD    
 FORMAT:FORMATTED              ACCESS:SEQUENTIAL          

 OPENING ./input/Agwater1.nwt
 FILE TYPE:NWT   UNIT   13   STATUS:OLD    
 FORMAT:FORMATTED              ACCESS:SEQUENTIAL          

 OPENING ./input/Agwater1.oc
 FILE TYPE:OC   UNIT   14   STATUS:OLD    
 FORMAT:FORMATTED              ACCESS:SEQUENTIAL          

 OPENING ./input/Agwater1.sfr
 FILE TYPE:SFR   UNIT   15   STATUS:OLD    
 FORMAT:FORMATTED              ACCESS:SEQUENTIAL          

 OPENING ./input/Agwater1.ghb
 FILE TYPE:GHB   UNIT   17   STATUS:OLD    
 FORMAT:FORMATTED              ACCESS:SEQUENTIAL          

 OPENING ./input/Agwater1.uzf
 FILE TYPE:UZF   UNIT   19   STATUS:OLD    
 FORMAT:FORMATTED              ACCESS:SEQUENTIAL          

 OPENING ./input/Agwater1.gag
 FILE TYPE:GAGE   UNIT   32   STATUS:OLD    
 FORMAT:FORMATTED              ACCESS:SEQUENTIAL          

 OPENING ./input/seg1_high.tab
 FILE TYPE:DATA   UNIT   55   STATUS:UNKNOWN
 FORMAT:FORMATTED              ACCESS:SEQUENTIAL          

 OPENING ./input/seg9.tab
 FILE TYPE:DATA   UNIT   56   STATUS:UNKNOWN
 FORMAT:FORMATTED              ACCESS:SEQUENTIAL          

 OPENING ./input/Agwater1.ag
 FILE TYPE:AG   UNIT   57   STATUS:OLD    
 FORMAT:FORMATTED              ACCESS:SEQUENTIAL          

 OPENING ./output/high/Agwater1_high.hed
 FILE TYPE:DATA   UNIT   62   STATUS:UNKNOWN
 FORMAT:FORMATTED              ACCESS:SEQUENTIAL          

 OPENING ./output/high/Agwater1gw_high.ts5
 FILE TYPE:DATA   UNIT  105   STATUS:UNKNOWN
 FORMAT:FORMATTED              ACCESS:SEQUENTIAL          

 OPENING ./output/high/Agwater1SW_high.ts9
 FILE TYPE:DATA   UNIT  107   STATUS:UNKNOWN
 FORMAT:FORMATTED              ACCESS:SEQUENTIAL          

 OPENING ./output/high/Agwater1SW_ET_high.ts9
 FILE TYPE:DATA   UNIT  108   STATUS:UNKNOWN
 FORMAT:FORMATTED              ACCESS:SEQUENTIAL          

 OPENING ./output/high/Agwater1_high.uzfot
 FILE TYPE:DATA(BINARY)   UNIT   61   STATUS:UNKNOWN
 FORMAT:UNFORMATTED            ACCESS:STREAM              

 OPENING ./output/high/Agwater1cbc_high.unf
 FILE TYPE:DATA(BINARY)   UNIT  102   STATUS:UNKNOWN
 FORMAT:UNFORMATTED            ACCESS:STREAM              

 OPENING ./output/high/Agwater1_high.uzf1
 FILE TYPE:DATA   UNIT   65   STATUS:UNKNOWN
 FORMAT:FORMATTED              ACCESS:SEQUENTIAL          

 OPENING ./output/high/Agwater1_high.uzf2
 FILE TYPE:DATA   UNIT   66   STATUS:UNKNOWN
 FORMAT:FORMATTED              ACCESS:SEQUENTIAL          

 OPENING ./output/high/Agwater1_high.uzf3
 FILE TYPE:DATA   UNIT   67   STATUS:UNKNOWN
 FORMAT:FORMATTED              ACCESS:SEQUENTIAL          

 OPENING ./output/high/Agwater1_high.uzf4
 FILE TYPE:DATA   UNIT   68   STATUS:UNKNOWN
 FORMAT:FORMATTED              ACCESS:SEQUENTIAL          

 OPENING ./output/high/Agwater1_high.flw
 FILE TYPE:DATA   UNIT   81   STATUS:UNKNOWN
 FORMAT:FORMATTED              ACCESS:SEQUENTIAL          

 OPENING ./output/high/Agwater1_high.sg1
 FILE TYPE:DATA   UNIT   83   STATUS:UNKNOWN
 FORMAT:FORMATTED              ACCESS:SEQUENTIAL          

 OPENING ./output/high/Agwater1_high.sg2
 FILE TYPE:DATA   UNIT   84   STATUS:UNKNOWN
 FORMAT:FORMATTED              ACCESS:SEQUENTIAL          

 OPENING ./output/high/Agwater1_high.sg3
 FILE TYPE:DATA   UNIT   85   STATUS:UNKNOWN
 FORMAT:FORMATTED              ACCESS:SEQUENTIAL          

 OPENING ./output/high/Agwater1_high.sg4
 FILE TYPE:DATA   UNIT   86   STATUS:UNKNOWN
 FORMAT:FORMATTED              ACCESS:SEQUENTIAL          

 OPENING ./output/high/Agwater1_high.sg5
 FILE TYPE:DATA   UNIT   87   STATUS:UNKNOWN
 FORMAT:FORMATTED              ACCESS:SEQUENTIAL          

 OPENING ./output/high/Agwater1_high.sg6
 FILE TYPE:DATA   UNIT   88   STATUS:UNKNOWN
 FORMAT:FORMATTED              ACCESS:SEQUENTIAL          

 OPENING ./output/high/Agwater1_high.sg7
 FILE TYPE:DATA   UNIT   89   STATUS:UNKNOWN
 FORMAT:FORMATTED              ACCESS:SEQUENTIAL          

 OPENING ./output/high/Agwater1_high.sg8
 FILE TYPE:DATA   UNIT   90   STATUS:UNKNOWN
 FORMAT:FORMATTED              ACCESS:SEQUENTIAL          

 OPENING ./output/high/Agwater1_high.sg9
 FILE TYPE:DATA   UNIT   91   STATUS:UNKNOWN
 FORMAT:FORMATTED              ACCESS:SEQUENTIAL          

 BAS -- BASIC PACKAGE, VERSION 1.1.4, 4/01/2018 INPUT READ FROM UNIT   75
 
 MODFLOW was compiled using mixed precision
 Precision of REAL variables:           6
 Precision of DOUBLE PRECISION variables:          15

 DISCRETIZATION INPUT DATA READ FROM UNIT    8
 #Test problem 2-- Discretization input
 #Example problem using the UZF1 Package
    1 LAYERS        15 ROWS        10 COLUMNS
   49 STRESS PERIOD(S) IN SIMULATION
 MODEL TIME UNIT IS SECONDS
 MODEL LENGTH UNIT IS FEET
  Confining bed flag for each layer:
   0

                     DELR =   5000.00    

                     DELC =   5000.00    



           TOP ELEVATION OF LAYER 1
 READING ON UNIT    8 WITH FORMAT: (10F7.0)            

            1           2           3           4           5           6           7           8           9          10
 ........................................................................................................................
   1    1105.       1105.       0.000       0.000       0.000       0.000       0.000       0.000       0.000       0.000    
   2    1105.       1095.       1105.       0.000       0.000       1100.       1100.       1110.       0.000       0.000    
   3    0.000       1100.       1085.       1080.       1078.       1076.       1073.       1090.       0.000       0.000    
   4    1110.       1100.       1090.       1085.       1076.       1080.       1080.       1070.       1100.       0.000    
   5    1110.       1100.       1085.       1080.       1078.       1074.       1077.       1066.       1075.       1080.    
   6    1105.       1095.       1080.       1077.       1073.       1069.       1070.       1063.       1085.       1095.    
   7    1105.       1090.       1075.       1072.       1070.       1065.       1065.       1069.       1090.       0.000    
   8    0.000       1080.       1070.       1068.       1063.       1060.       1063.       1067.       1090.       0.000    
   9    0.000       1075.       1065.       1062.       1058.       1052.       1055.       1065.       1090.       0.000    
  10    0.000       1070.       1060.       1055.       1046.       1046.       1044.       1060.       1088.       1100.    
  11    0.000       1055.       1050.       1045.       1041.       1042.       1040.       1050.       1075.       0.000    
  12    1027.       1028.       1028.       1032.       1032.       1033.       1032.       1040.       1060.       0.000    
  13    997.0       1004.       1008.       1014.       1020.       1027.       1032.       1038.       1050.       0.000    
  14    0.000       1030.       1040.       1045.       1050.       1050.       1050.       1050.       1044.       0.000    
  15    0.000       0.000       1080.       1080.       1080.       1080.       0.000       0.000       0.000       0.000    



             MODEL LAYER BOTTOM EL. FOR LAYER   1
 READING ON UNIT    8 WITH FORMAT: (10F7.0)            

            1           2           3           4           5           6           7           8           9          10
 ........................................................................................................................
   1    1000.       1000.       0.000       0.000       0.000       0.000       0.000       0.000       0.000       0.000    
   2    1000.       900.0       900.0       0.000       0.000       950.0       950.0       950.0       0.000       0.000    
   3    0.000       850.0       670.0       680.0       680.0       770.0       770.0       890.0       0.000       0.000    
   4    925.0       850.0       650.0       650.0       650.0       680.0       740.0       850.0       950.0       0.000    
   5    925.0       800.0       650.0       600.0       600.0       600.0       650.0       720.0       850.0       950.0    
   6    925.0       800.0       650.0       600.0       550.0       600.0       650.0       720.0       850.0       970.0    
   7    925.0       800.0       650.0       600.0       550.0       600.0       650.0       720.0       950.0       0.000    
   8    0.000       850.0       700.0       650.0       570.0       600.0       700.0       850.0       950.0       0.000    
   9    0.000       850.0       700.0       650.0       540.0       580.0       700.0       850.0       950.0       0.000    
  10    0.000       850.0       700.0       630.0       530.0       580.0       650.0       800.0       900.0       950.0    
  11    0.000       850.0       700.0       620.0       580.0       620.0       700.0       800.0       900.0       0.000    
  12    900.0       830.0       710.0       640.0       600.0       650.0       700.0       800.0       900.0       0.000    
  13    900.0       810.0       750.0       700.0       650.0       700.0       750.0       800.0       900.0       0.000    
  14    0.000       950.0       850.0       850.0       850.0       850.0       850.0       850.0       850.0       0.000    
  15    0.000       0.000       950.0       950.0       950.0       950.0       0.000       0.000       0.000       0.000    


 STRESS PERIOD     LENGTH       TIME STEPS     MULTIPLIER FOR DELT    SS FLAG
 ----------------------------------------------------------------------------
        1         86400.00          1                    1.000         SS
        2         2630000.         30                    1.000         TR
        3         2630000.         30                    1.000         TR
        4         2630000.         30                    1.000         TR
        5         2630000.         30                    1.000         TR
        6         2630000.         30                    1.000         TR
        7         2630000.         30                    1.000         TR
        8         2630000.         30                    1.000         TR
        9         2630000.         30                    1.000         TR
       10         2630000.         30                    1.000         TR
       11         2630000.         30                    1.000         TR
       12         2630000.         30                    1.000         TR
       13         2630000.         30                    1.000         TR
       14         2630000.         30                    1.000         TR
       15         2630000.         30                    1.000         TR
       16         2630000.         30                    1.000         TR
       17         2630000.         30                    1.000         TR
       18         2630000.         30                    1.000         TR
       19         2630000.         30                    1.000         TR
       20         2630000.         30                    1.000         TR
       21         2630000.         30                    1.000         TR
       22         2630000.         30                    1.000         TR
       23         2630000.         30                    1.000         TR
       24         2630000.         30                    1.000         TR
       25         2630000.         30                    1.000         TR
       26         2630000.         30                    1.000         TR
       27         2630000.         30                    1.000         TR
       28         2630000.         30                    1.000         TR
       29         2630000.         30                    1.000         TR
       30         2630000.         30                    1.000         TR
       31         2630000.         30                    1.000         TR
       32         2630000.         30                    1.000         TR
       33         2630000.         30                    1.000         TR
       34         2630000.         30                    1.000         TR
       35         2630000.         30                    1.000         TR
       36         2630000.         30                    1.000         TR
       37         2630000.         30                    1.000         TR
       38         2630000.         30                    1.000         TR
       39         2630000.         30                    1.000         TR
       40         2630000.         30                    1.000         TR
       41         2630000.         30                    1.000         TR
       42         2630000.         30                    1.000         TR
       43         2630000.         30                    1.000         TR
       44         2630000.         30                    1.000         TR
       45         2630000.         30                    1.000         TR
       46         2630000.         30                    1.000         TR
       47         2630000.         30                    1.000         TR
       48         2630000.         30                    1.000         TR
       49         2630000.         30                    1.000         TR

 COMBINED STEADY-STATE AND TRANSIENT SIMULATION



 
 #Test Simulation 2-- Example problem using the UZF1 Package                     
 #Modified from example Problem 1 of SFR1 documentation report                   
 THE FREE FORMAT OPTION HAS BEEN SELECTED



                     BOUNDARY ARRAY FOR LAYER   1
 READING ON UNIT   75 WITH FORMAT: (20I4)              

                1           2           3           4           5           6           7           8           9          10
 ............................................................................................................................
   1            1           1           0           0           0           0           0           0           0           0
   2            1           1           1           0           0           1           1           1           0           0
   3            0           1           1           1           1           1           1           1           0           0
   4            1           1           1           1           1           1           1           1           1           0
   5            1           1           1           1           1           1           1           1           1           1
   6            1           1           1           1           1           1           1           1           1           1
   7            1           1           1           1           1           1           1           1           1           0
   8            0           1           1           1           1           1           1           1           1           0
   9            0           1           1           1           1           1           1           1           1           0
  10            0           1           1           1           1           1           1           1           1           1
  11            0           1           1           1           1           1           1           1           1           0
  12            1           1           1           1           1           1           1           1           1           0
  13            1           1           1           1           1           1           1           1           1           0
  14            0           1           1           1           1           1           1           1           1           0
  15            0           0           1           1           1           1           0           0           0           0

 AQUIFER HEAD WILL BE SET TO   6999.0     AT ALL NO-FLOW NODES (IBOUND=0).



                       INITIAL HEAD FOR LAYER   1
 READING ON UNIT   75 WITH FORMAT: (10F8.0)            

            1           2           3           4           5           6           7           8           9          10
 ........................................................................................................................
   1    1093.       1089.       6999.       6999.       6999.       6999.       6999.       6999.       6999.       6999.    
   2    1090.       1087.       1081.       6999.       6999.       1072.       1071.       1071.       6999.       6999.    
   3    6999.       1079.       1078.       1074.       1072.       1071.       1069.       1068.       6999.       6999.    
   4    1069.       1071.       1070.       1067.       1065.       1064.       1064.       1066.       1066.       6999.    
   5    1065.       1064.       1063.       1062.       1061.       1061.       1060.       1062.       1066.       1068.    
   6    1060.       1058.       1057.       1056.       1056.       1057.       1057.       1059.       1062.       1066.    
   7    1056.       1053.       1052.       1051.       1051.       1052.       1053.       1055.       1056.       6999.    
   8    6999.       1046.       1046.       1046.       1046.       1046.       1048.       1050.       1050.       6999.    
   9    6999.       1039.       1039.       1039.       1040.       1041.       1042.       1043.       1044.       6999.    
  10    6999.       1031.       1032.       1033.       1034.       1035.       1037.       1038.       1039.       1042.    
  11    6999.       1021.       1023.       1027.       1029.       1030.       1032.       1034.       1036.       6999.    
  12    1001.       1009.       1015.       1020.       1023.       1026.       1029.       1030.       1034.       6999.    
  13    994.5      1000.0       1007.       1013.       1019.       1024.       1029.       1034.       1036.       6999.    
  14    6999.       1004.       1009.       1014.       1019.       1024.       1029.       1035.       1039.       6999.    
  15    6999.       6999.       1012.       1015.       1019.       1022.       6999.       6999.       6999.       6999.    

 OUTPUT CONTROL IS SPECIFIED ONLY AT TIME STEPS FOR WHICH OUTPUT IS DESIRED
 HEADS WILL BE SAVED WITH FORMAT: (10F10.3)           
 SAVED HEADS WILL BE LABELED
 COMPACT CELL-BY-CELL BUDGET FILES WILL BE WRITTEN
 HEAD PRINT FORMAT CODE IS   4    DRAWDOWN PRINT FORMAT CODE IS   0
 HEADS WILL BE SAVED ON UNIT   62    DRAWDOWNS WILL BE SAVED ON UNIT    0
 # NWT Input File
 # Test Problem 3 for MODFLOW-NWT
 #HEADTOL  FLUXTOL MAXITEROUT THICKFACT LINMETH IPRNWT IBOTAV OPTIONS DBDREDUCE DBDINCREASE DBDGAMMA MOMFACT BACKFLAG MAXBACKITER BACKTOL BACKREDUCE

 NWT1 -- Newton Solver, VERSION 1.1.4, 4/01/2018
         INPUT READ FROM UNIT 13

 SPECIFIED OPTION:
 SOLVER INPUT VALUES ARE SPECIFIED BY USER
 ***XMD linear solver will be used***
 
   CONVERGENCE CRITERION OF   0.100000E-03 FOR HEAD SOLUTION
   AND A TOLERANCE OF   0.100000E+01 FOR FLOW SOLUTION AND 
   A MAXIMUM OF   500 OUTER ITERATIONS. 


   D-B-D REDUCTION FACTOR OF    0.970000E+00 AND 
   A D-B-D INCREASE FACTOR OF    0.100000E-04 AND 
   A D-B-D RELAXATION OF    0.000000E+00 AND 
   A MOMENTUM FACTOR OF    0.100000E+00 .


 ***BACKTRACKING IS INACTIVE***
 XMD -- LINEAR SOLUTION BY XMD PACKAGE VERSION 1.30
     BY MOTOMU IBARAKI, OHIO STATE UNIVERSITY, COLOMBUS, OH
                 INPUT READ FROM UNIT 13
 ACCELERATION METHOD                    (IACL) =         1
 NODE ORDERING FLAG                   (NORDER) =         0
 LEVEL OF FILL                         (LEVEL) =         7
 MAXIMUM NUMBER OF ORTHOGONALIZATIONS  (NORTH) =         7
 INDEX FOR USING REDUCED SYSTEM      (IREDSYS) =         1
 RESID. REDUCTION CONVERGE CRITERION  (RRCTOL) =  0.000000E+00
 INDEX FOR USING DROP TOLERANCE     (IDROPTOL) =         1
 DROP TOLERANCE VALUE                  (EPSRN) =  0.500000E-02
 CONVERGENCE CRITERIA OF           (HCLOSEXMD) =  0.100000E-03
 MAX. NUMBER OF LINEAR ITERATIONS  (MXITERXMD) =        50


 UPW1 -- UPSTREAM WEIGHTING FLOW PACKAGE, VERSION 1.1.4, 4/01/2018
         INPUT READ FROM UNIT  7

 #Layer-Property Flow Package input for test simulation 2
 CELL-BY-CELL FLOWS WILL BE SAVED ON UNIT  102
 No named parameters

   LAYER FLAGS:
 LAYER       LAYTYP          LAYAVG    CHANI           LAYVKA           LAYWET
 ---------------------------------------------------------------------------
    1             1             0     1.000E+00             0             0

   INTERPRETATION OF LAYER FLAGS:
                        INTERBLOCK     HORIZONTAL    DATA IN
         LAYER TYPE   TRANSMISSIVITY   ANISOTROPY   ARRAY VKA   WETTABILITY
 LAYER   (LAYTYP)        (LAYAVG)      (CHANI)     (LAYVKA)       (LAYWET)
 ---------------------------------------------------------------------------
    1   CONVERTIBLE      HARMONIC     1.000E+00    VERTICAL K  NON-WETTABLE



              HYD. COND. ALONG ROWS FOR LAYER   1
 READING ON UNIT    7 WITH FORMAT: (10F5.0)            

            1           2           3           4           5           6           7           8           9          10
 ........................................................................................................................
   1   2.0000E-03  2.0000E-03   0.000       0.000       0.000       0.000       0.000       0.000       0.000       0.000    
   2   4.0000E-04  2.0000E-03  2.0000E-03   0.000       0.000      4.0000E-04  4.0000E-04  4.0000E-04   0.000       0.000    
   3    0.000      4.0000E-04  2.0000E-03  2.0000E-03  4.0000E-04  4.0000E-04  4.0000E-04  4.0000E-04   0.000       0.000    
   4   4.0000E-04  4.0000E-04  4.0000E-04  2.0000E-03  2.0000E-03  2.0000E-03  4.0000E-04  4.0000E-04  4.0000E-04   0.000    
   5   4.0000E-04  4.0000E-04  4.0000E-04  2.0000E-03  2.0000E-03  2.0000E-03  2.0000E-03  2.0000E-03  2.0000E-03  2.0000E-03
   6   4.0000E-04  4.0000E-04  4.0000E-04  2.0000E-03  2.0000E-03  2.0000E-03  2.0000E-03  2.0000E-03  4.0000E-04  4.0000E-04
   7   4.0000E-04  4.0000E-04  4.0000E-04  2.0000E-03  2.0000E-03  2.0000E-03  2.0000E-03  2.0000E-03  4.0000E-04   0.000    
   8    0.000      4.0000E-04  4.0000E-04  2.0000E-03  2.0000E-03  2.0000E-03  2.0000E-03  4.0000E-04  4.0000E-04   0.000    
   9    0.000      4.0000E-04  4.0000E-04  2.0000E-03  2.0000E-03  2.0000E-03  2.0000E-03  4.0000E-04  4.0000E-04   0.000    
  10    0.000      4.0000E-04  4.0000E-04  2.0000E-03  2.0000E-03  2.0000E-03  2.0000E-03  4.0000E-04  4.0000E-04  4.0000E-04
  11    0.000      4.0000E-04  4.0000E-04  2.0000E-03  2.0000E-03  2.0000E-03  2.0000E-03  4.0000E-04  4.0000E-04   0.000    
  12   4.0000E-04  4.0000E-04  2.0000E-03  2.0000E-03  2.0000E-03  2.0000E-03  2.0000E-03  4.0000E-04  4.0000E-04   0.000    
  13   2.0000E-03  2.0000E-03  2.0000E-03  2.0000E-03  2.0000E-03  2.0000E-03  2.0000E-03  2.0000E-03  2.0000E-03   0.000    
  14    0.000      4.0000E-04  4.0000E-04  4.0000E-04  4.0000E-04  4.0000E-04  4.0000E-04  4.0000E-04  2.0000E-03   0.000    
  15    0.000       0.000      4.0000E-04  4.0000E-04  4.0000E-04  4.0000E-04   0.000       0.000       0.000       0.000    

      VERTICAL HYD. COND. =  1.000000E-06 FOR LAYER   1

         SPECIFIC STORAGE =  1.000000E-06 FOR LAYER   1



                     SPECIFIC YIELD FOR LAYER   1
 READING ON UNIT    7 WITH FORMAT: (10F5.0)            

            1           2           3           4           5           6           7           8           9          10
 ........................................................................................................................
   1   0.2000      0.2000       0.000       0.000       0.000       0.000       0.000       0.000       0.000       0.000    
   2   0.1000      0.2000      0.2000       0.000       0.000      0.1000      0.1000      0.1000       0.000       0.000    
   3    0.000      0.1000      0.2000      0.2000      0.1000      0.1000      0.1000      0.1000       0.000       0.000    
   4   0.1000      0.1000      0.1000      0.2000      0.2000      0.2000      0.1000      0.1000      0.1000       0.000    
   5   0.1000      0.1000      0.1000      0.2000      0.2000      0.2000      0.2000      0.2000      0.2000      0.2000    
   6   0.1000      0.1000      0.1000      0.2000      0.2000      0.2000      0.2000      0.2000      0.1000      0.1000    
   7   0.1000      0.1000      0.1000      0.2000      0.2000      0.2000      0.2000      0.2000      0.1000       0.000    
   8    0.000      0.1000      0.1000      0.2000      0.2000      0.2000      0.2000      0.1000      0.1000       0.000    
   9    0.000      0.1000      0.1000      0.2000      0.2000      0.2000      0.2000      0.1000      0.1000       0.000    
  10    0.000      0.1000      0.1000      0.2000      0.2000      0.2000      0.2000      0.1000      0.1000      0.1000    
  11    0.000      0.1000      0.1000      0.2000      0.2000      0.2000      0.2000      0.1000      0.1000       0.000    
  12   0.1000      0.1000      0.2000      0.2000      0.2000      0.2000      0.2000      0.1000      0.1000       0.000    
  13   0.2000      0.2000      0.2000      0.2000      0.2000      0.2000      0.2000      0.2000      0.2000       0.000    
  14    0.000      0.1000      0.1000      0.1000      0.1000      0.1000      0.1000      0.1000      0.2000       0.000    
  15    0.000       0.000      0.1000      0.1000      0.1000      0.1000       0.000       0.000       0.000       0.000    

 GHB -- GENERAL-HEAD BOUNDARY PACKAGE, VERSION 7, 5/2/2005
         INPUT READ FROM UNIT   17
 No named parameters
 MAXIMUM OF      2 ACTIVE GHB CELLS AT ONE TIME
 CELL-BY-CELL FLOWS WILL BE PRINTED WHEN ICBCFL NOT 0


     0 GHB parameters

 SFR7 -- STREAMFLOW ROUTING PACKAGE, VERSION 1.0.5, 2012-04-05
         INPUT READ FROM UNIT  15
 #SFR2 Package input for Testing supplimental pumping and irrigation
 No named parameters

 PROCESSING SFR2 OPTIONS
 
          2 Specified inflow files will be read with a maximum of       1446 row entries per file
 
Stream loss will be calculated as a factor of the streambed hydraulic conductivity. Multiplication factor is equal to     0.1000000015E+00

 END PROCESSING SFR2 OPTIONS
 


 NUMBER OF STREAM REACHES IS   38

 NUMBER OF STREAM SEGMENTS IS    9

 NUMBER OF STREAM PARAMETERS IS    0

 NUMBER OF STREAM SEGMENTS DEFINED USING PARAMETERS IS              0

 MAXIMUM ERROR FOR STREAM LEAKAGE RATES IS  1.00E-06

 CONSTANT FOR MANNINGS EQUATION IS  1.4860E+00



 STREAM OUTPUT WILL BE WRITTEN TO FILE ON UNIT   81


   STREAM NETWORK DESCRIPTION: 

   LAYER    ROW    COL   SEGMENT   REACH     LENGTH
                          NUMBER   NUMBER    IN CELL        
   --------------------------------------------------
      1      1      1       1        1    4.5000E+03
      1      2      2       1        2    7.0000E+03
      1      3      3       1        3    6.0000E+03
      1      3      4       1        4    5.5500E+03
      1      4      5       2        1    6.5000E+03
      1      5      6       2        2    5.0000E+03
      1      6      6       2        3    5.0000E+03
      1      7      6       2        4    5.0000E+03
      1      8      6       2        5    5.0000E+03
      1      3      5       3        1    5.0000E+03
      1      3      6       3        2    5.0000E+03
      1      3      7       3        3    4.5000E+03
      1      4      8       3        4    6.0000E+03
      1      5      8       3        5    5.0000E+03
      1      6      8       3        6    2.0000E+03
      1      5     10       4        1    2.5000E+03
      1      5      9       4        2    5.0000E+03
      1      6      8       4        3    3.5000E+03
      1      6      8       5        1    4.0000E+03
      1      7      7       5        2    5.0000E+03
      1      8      7       5        3    3.5000E+03
      1      8      6       5        4    2.5000E+03
      1      9      6       6        1    5.0000E+03
      1     10      7       6        2    5.0000E+03
      1     11      7       6        3    5.0000E+03
      1     12      7       6        4    5.0000E+03
      1     13      7       6        5    2.0000E+03
      1     14      9       7        1    5.0000E+03
      1     13      8       7        2    5.5000E+03
      1     13      7       7        3    5.0000E+03
      1     13      6       8        1    5.0000E+03
      1     13      5       8        2    5.0000E+03
      1     13      4       8        3    5.0000E+03
      1     13      3       8        4    5.0000E+03
      1     13      2       8        5    5.0000E+03
      1     13      1       8        6    3.0000E+03
      1      8      6       9        1    3.0000E+03
      1      8      5       9        2    3.0000E+03




 UZF1 -- UNSATURATED FLOW PACKAGE, VERSION 1.5, 09/10/2019
         INPUT READ FROM UNIT 19
 #UZF Package input for test simulation 2
 No named parameters

 PROCESSING UZF OPTIONS
 
 
 INITIAL WATER CONTENT (THTI) WILL BE 
READ FOR THE FIRST SS OR TR STRESS PERIOD
 
 
 RESIDUAL WATER CONTENT (THTR) WILL BE 
READ AND USED FOR THE FIRST TRANSIENT STRESS 
PERIOD
 
 
AIR ENTRY PRESSURE AND ROOT PRESSURE WILL BE 
SPECIFIED BY USER AND UZ ET WILL BE SIMULATED 
AS PRESSURE-HEAD DEPENDENT
 
 
INFILTRATION WILL BE REJECTED USING 
LAND SURFACE K
 
 
HYDRAULIC CONDUCTIVITY OF LAND SURFACE 
WILL BE READ
 

 END PROCESSING UZF OPTIONS



            AREAL EXTENT OF UZ FLOW
 READING ON UNIT   19 WITH FORMAT: (20I4)              

                1           2           3           4           5           6           7           8           9          10
 ............................................................................................................................
   1            1           1           0           0           0           0           0           0           0           0
   2            1           1           1           0           0           1           1           1           0           0
   3            0           1           1           1           1           1           1           1           0           0
   4            1           1           1           1           1           1           1           1           1           0
   5            1           1           1           1           1           1           1           1           1           1
   6            1           1           1           1           1           1           1           1           1           1
   7            1           1           1           1           1           1           1           1           1           0
   8            0           1           1           1           1           1           1           1           1           0
   9            0           1           1           1           1           1           1           1           1           0
  10            0           1           1           1           1           1           1           1           1           1
  11            0           1           1           1           1           1           1           1           1           0
  12            1           1           1           1           1           1           1           1           1           0
  13            1           1           1           1           1           1           1           1           1           0
  14            0           1           1           1           1           1           1           1           1           0
  15            0           0           1           1           1           1           0           0           0           0
 OPTION 1 -- RECHARGE IN UZF TO TOP LAYER ONLY 



            ROUTING OVERLAND RUNOFF
 READING ON UNIT   19 WITH FORMAT: (20I4)              

                1           2           3           4           5           6           7           8           9          10
 ............................................................................................................................
   1            1           1           0           0           0           0           0           0           0           0
   2            1           1           1           0           0           3           3           3           0           0
   3            0           1           1           1           3           3           3           3           0           0
   4            8           8           2           2           2           2           2           3           3           0
   5            8           8           8           8           2           2           2           3           4           4
   6            8           8           8           8           8           2           2           4           4           4
   7            8           8           8           8           8           2           5           5           5           0
   8            0           8           8           8           8           2           5           5           5           0
   9            0           8           8           8           8           6           6           6           6           0
  10            0           8           8           8           8           6           6           6           6           6
  11            0           8           8           8           8           8           6           6           7           0
  12            8           8           8           8           8           8           6           7           7           0
  13            8           8           8           8           8           8           7           7           7           0
  14            0           8           8           8           8           8           7           7           7           0
  15            0           0           8           8           8           8           0           0           0           0



               SATURATED VERTICAL K
 READING ON UNIT   19 WITH FORMAT: (10F4.0)            

            1           2           3           4           5           6           7           8           9          10
 ........................................................................................................................
   1   4.6000E-05  4.6000E-05   0.000       0.000       0.000       0.000       0.000       0.000       0.000       0.000    
   2   4.6000E-05  4.6000E-05  4.6000E-05   0.000       0.000      4.6000E-05  4.6000E-05  4.6000E-05   0.000       0.000    
   3    0.000      4.6000E-05  4.6000E-05  4.6000E-05  4.6000E-05  4.6000E-05  4.6000E-05  4.6000E-05   0.000       0.000    
   4   4.6000E-05  4.6000E-05  4.6000E-05  4.6000E-05  4.6000E-05  4.6000E-05  4.6000E-05  4.6000E-05  4.6000E-05   0.000    
   5   4.6000E-05  4.6000E-05  4.6000E-05  4.6000E-05  4.6000E-05  4.6000E-05  4.6000E-05  4.6000E-05  4.6000E-05  4.6000E-05
   6   4.6000E-05  4.6000E-05  4.6000E-05  4.6000E-05  4.6000E-05  4.6000E-05  4.6000E-05  4.6000E-05  4.6000E-05  4.6000E-05
   7   4.6000E-05  4.6000E-05  4.6000E-05  4.6000E-05  4.6000E-05  4.6000E-05  4.6000E-05  4.6000E-05  4.6000E-05   0.000    
   8    0.000      4.6000E-05  4.6000E-05  4.6000E-05  4.6000E-05  4.6000E-05  4.6000E-05  4.6000E-05  4.6000E-05   0.000    
   9    0.000      4.6000E-05  4.6000E-05  4.6000E-05  4.6000E-05  4.6000E-05  4.6000E-05  4.6000E-05  4.6000E-05   0.000    
  10    0.000      4.6000E-05  4.6000E-05  4.6000E-05  4.6000E-05  4.6000E-05  4.6000E-05  4.6000E-05  4.6000E-05  4.6000E-05
  11    0.000      4.6000E-05  4.6000E-05  4.6000E-05  4.6000E-05  4.6000E-05  4.6000E-05  4.6000E-05  4.6000E-05   0.000    
  12   4.6000E-05  4.6000E-05  4.6000E-05  4.6000E-05  4.6000E-05  4.6000E-05  4.6000E-05  4.6000E-05  4.6000E-05   0.000    
  13   4.6000E-05  4.6000E-05  4.6000E-05  4.6000E-05  4.6000E-05  4.6000E-05  4.6000E-05  4.6000E-05  4.6000E-05   0.000    
  14    0.000      4.6000E-05  4.6000E-05  4.6000E-05  4.6000E-05  4.6000E-05  4.6000E-05  4.6000E-05  4.6000E-05   0.000    
  15    0.000       0.000      4.6000E-05  4.6000E-05  4.6000E-05  4.6000E-05   0.000       0.000       0.000       0.000    



            LAND SURFACE VERTICAL K
 READING ON UNIT   19 WITH FORMAT: (10F4.0)            

            1           2           3           4           5           6           7           8           9          10
 ........................................................................................................................
   1   1.0000E-05  1.0000E-05   0.000       0.000       0.000       0.000       0.000       0.000       0.000       0.000    
   2   1.0000E-05  1.0000E-05  1.0000E-05   0.000       0.000      1.0000E-05  1.0000E-05  1.0000E-05   0.000       0.000    
   3    0.000      1.0000E-05  1.0000E-05  1.0000E-05  1.0000E-05  1.0000E-05  1.0000E-05  1.0000E-05   0.000       0.000    
   4   1.0000E-05  1.0000E-05  1.0000E-05  1.0000E-05  1.0000E-05  1.0000E-05  1.0000E-05  1.0000E-05  1.0000E-05   0.000    
   5   1.0000E-05  1.0000E-05  1.0000E-05  1.0000E-05  1.0000E-05  1.0000E-05  1.0000E-05  1.0000E-05  1.0000E-05  1.0000E-05
   6   1.0000E-05  1.0000E-05  1.0000E-05  1.0000E-05  1.0000E-05  1.0000E-05  1.0000E-05  1.0000E-05  1.0000E-05  1.0000E-05
   7   1.0000E-05  1.0000E-05  1.0000E-05  1.0000E-05  1.0000E-05  1.0000E-05  1.0000E-05  1.0000E-05  1.0000E-05   0.000    
   8    0.000      1.0000E-05  1.0000E-05  1.0000E-05  1.0000E-05  1.0000E-05  1.0000E-05  1.0000E-05  1.0000E-05   0.000    
   9    0.000      1.0000E-05  1.0000E-05  1.0000E-05  1.0000E-05  1.0000E-05  1.0000E-05  1.0000E-05  1.0000E-05   0.000    
  10    0.000      1.0000E-05  1.0000E-05  1.0000E-05  1.0000E-05  1.0000E-05  1.0000E-05  1.0000E-05  1.0000E-05  1.0000E-05
  11    0.000      1.0000E-05  1.0000E-05  1.0000E-05  1.0000E-05  1.0000E-05  1.0000E-05  1.0000E-05  1.0000E-05   0.000    
  12   1.0000E-05  1.0000E-05  1.0000E-05  1.0000E-05  1.0000E-05  1.0000E-05  1.0000E-05  1.0000E-05  1.0000E-05   0.000    
  13   1.0000E-05  1.0000E-05  1.0000E-05  1.0000E-05  1.0000E-05  1.0000E-05  1.0000E-05  1.0000E-05  1.0000E-05   0.000    
  14    0.000      1.0000E-05  1.0000E-05  1.0000E-05  1.0000E-05  1.0000E-05  1.0000E-05  1.0000E-05  1.0000E-05   0.000    
  15    0.000       0.000      1.0000E-05  1.0000E-05  1.0000E-05  1.0000E-05   0.000       0.000       0.000       0.000    

     BROOKS-COREY EPSILON =   7.50000    

  SATURATED WATER CONTENT =  0.380000    

   RESIDUAL WATER CONTENT =  0.200000    

    INITIAL WATER CONTENT =  0.200000    

UNSATURATED FLOW RESULTS WILL BE PRINTED TO SEPARATE FILES FOR SELECTED MODEL CELLS, AND TIME STEPS AS DEFINED BY OUTPUT CONTROL PACKAGE 

SELECTED MODEL CELLS ARE: 
 ROW NUMBER  COLUMN NUMBER  FORTRAN UNIT NUMBER  OUTPUT OPTION


       6             4                 65                 1
       6             5                 66                 2
       8             4                 67                 3
       0             0                 68                 4



   9 GAGING STATIONS WERE SPECIFIED.
     (Lakes are identified by a negative value of the Lake Number)
     RECORDS WILL BE WRITTEN TO SEPARATE OUTPUT FILES REPRESENTED BY FOLLOWING UNIT NUMBERS:

 Stream Gages:
  GAGE #   SEGMENT   REACH   UNIT   OUTTYPE
       1       1       4      83       1
       2       2       5      84       1
       3       3       5      85       1
       4       4       3      86       1
       5       5       4      87       4
       6       6       5      88       4
       7       7       3      89       4
       8       8       6      90       4
       9       9       1      91       5





 AG -- AG PACKAGE FOR NWT VERSION 1.2.0,  3/03/2020 INPUT READ FROM UNIT   57
 # AG options

 PROCESSING AG OPTIONS
 
 AGRICULTURAL DEMANDS WILL BE CALCULATED USING ET DEFICIT
 
 
 OPTION TO APPLY SURFACE WATER AS IRRIGATION IS ACTIVE. DIVERTED SURFACE WATER WILL BE APPLIED TO          1 CELLS/RHUS.
 
 
 OPTION TO PUMP SUPPLEMENTARY WATER FOR SURFACE DIVERSION SHORTFALL IS ACTIVATED.  A TOTAL OF             6 SUPPLEMENTAL WELLS ARE ACTIVE
 
 
 OPTION TO APPLY PUMPED WATER AS IRRIGATION IS ACTIVE. PUMPED IRRIGATION WATER WILL BE APPLIED TO          6 CELLS/RHUS.
 
 
 THE MAXIMUM NUMBER OF WELLS FOR SUPPLEMENTING DIVERSIONS OR APPLYING IRRIGATION IS          6 WELLS.
 
 
  UNFORMATTED CELL BY CELL RATES FOR SUP AND IRR WELLS WILL BE SAVED TO FILE UNIT NUMBER         -2
 
 
  UNFORMATTED CELL BY CELL RATES FOR SUP AND IRR WELLS WILL BE SAVED TO FILE UNIT NUMBER         -2
 
 
  UNFORMATTED CELL BY CELL RATES FOR SUP AND IRR WELLS WILL BE SAVED TO FILE UNIT NUMBER         -2
 
 
  UNFORMATTED CELL BY CELL RATES FOR SUP AND IRR WELLS WILL BE SAVED TO FILE UNIT NUMBER         -2
 
 
  GROUND WATER IRRIGATION, POTENTIAL AND ACTUAL ET WILL BE SAVED TO TIMES SERIES OUTPUT FILES.
 
 
  SURFACE WATER IRRIGATION, POTENTIAL AND ACTUAL ET WILL BE SAVED TO TIMES SERIES OUTPUT FILES.
 
 
  SURFACE WATER IRRIGATION, POTENTIAL AND ACTUAL ET WILL BE SAVED TO TIMES SERIES OUTPUT FILES.
 

 END PROCESSING AG OPTIONS
 # AG time series

 PROCESSING TIME SERIES

 FINISHED READING TIME SERIES
 A total number of          1 AG output time series files were activated for SURFACE WATER 
 A total number of          1 AG output time series files were activated for GROUNDWATER 
 A total number of          1 AG output time series files were activated for SURFACE WATER ET
 A total number of          0 AG output time series files were activated for GROUNDWATER ET
 A total number of          0 AG output time series files were activated for POND ET
 A total number of          0 AG output time series files were activated for POND IRRIGATION
 No ponds active in the AG Package
1
                            STRESS PERIOD NO.    1, LENGTH =   86400.00    
                            -----------------------------------------------

                              NUMBER OF TIME STEPS =     1

                               MULTIPLIER FOR DELT =     1.000

                            INITIAL TIME STEP SIZE =   86400.00    

 BOUND. NO. LAYER   ROW   COL     STAGE      CONDUCTANCE         
 ----------------------------------------------------------------
      1      1     13      1       988.0          0.3800E-01
      2      1     14      9       1045.          0.3800E-01

      2 GHB CELLS



 CLASSIFICATION & COUNT OF STREAM SEGMENTS BASED ON SOURCE OF INFLOW:

                HEADWATER     DIVERSION     RECEIVES TRIBUTARY FLOW
                ---------     ---------     -----------------------
                     3              2               4



                    INPUT DATA FOR EACH STREAM SEGMENT
 ---------------------------------------------------------------------------------------------

 SEGMENT    SEG.     INFLOW   OVERLAND   STREAM    STREAM   ICALC  OUTFLOW  DIVERSION PRIORITY
    NO.    LENGTH     RATE     RUNOFF      ET       PPT.    METH.  TO SEG.  FROM SEG.    NO.

      1  2.305E+04 2.500E+01 0.000E+00 0.000E+00 0.000E+00    4        2        0        0
      2  2.650E+04 0.000E+00 0.000E+00 0.000E+00 0.000E+00    1        6        0        0
      3  2.750E+04 2.000E+00 0.000E+00 0.000E+00 0.000E+00    0        5        1        0
      4  1.100E+04 1.000E+01 0.000E+00 0.000E+00 0.000E+00    1        5        0        0
      5  1.500E+04 0.000E+00 0.000E+00 0.000E+00 0.000E+00    3        6        0        0
      6  2.200E+04 0.000E+00 0.000E+00 0.000E+00 0.000E+00    1        8        0        0
      7  1.550E+04 1.500E+02 0.000E+00 0.000E+00 0.000E+00    2        8        0        0
      8  2.800E+04 0.000E+00 0.000E+00 0.000E+00 0.000E+00    2        0        0        0
      9  6.000E+03 0.000E+00 0.000E+00 0.000E+00 0.000E+00    1        0        2        0


         STREAMBED PROPERTIES AND STREAM DIMENSIONS

 SEGMENT     BED HYD. COND.      BED THICKNESS     ELEV.-TOP OF BED     WIDTH OF STREAM     DEPTH OF STREAM    STREAM ROUGHNESS
    No.     UPPER     LOWER     UPPER     LOWER     UPPER     LOWER     UPPER     LOWER     UPPER     LOWER   CHANNEL      BANK

     1  3.000E-05 3.000E-05 3.000E+00 3.000E+00 1.095E+03 1.075E+03
     2  3.000E-05 3.000E-05 3.000E+00 3.000E+00 1.075E+03 1.050E+03 1.200E+01 1.200E+01                     3.000E-02
     3  3.000E-05 3.000E-05 2.000E+00 2.000E+00 1.075E+03 1.060E+03 1.000E+01 6.000E+00 2.000E+00 1.000E+00
     4  3.000E-05 3.000E-05 3.000E+00 3.000E+00 1.080E+03 1.060E+03 1.000E+01 1.000E+01                     3.000E-02
     5  3.000E-05 3.000E-05 3.000E+00 3.000E+00 1.060E+03 1.045E+03
     6  3.000E-05 3.000E-05 3.000E+00 3.000E+00 1.045E+03 1.025E+03 1.200E+01 1.200E+01                     3.000E-02
     7  6.000E-05 6.000E-05 3.000E+00 3.000E+00 1.040E+03 1.025E+03                                         2.500E-02 4.500E-02
     8  6.000E-05 6.000E-05 3.000E+00 3.000E+00 1.025E+03 9.900E+02                                         2.500E-02 4.500E-02
     9  0.000E+00 0.000E+00 3.000E+00 3.000E+00 1.079E+03 1.078E+03 4.000E+00 4.000E+00                     3.000E-02

  EIGHT POINT CROSS-SECTION DATA FOR SEGMENTS WITH ICALC = 2
    X VALUES X VALUES START FROM LEFT SIDE LOOKING DOWNSTREAM

     SEGMENT NO.        X1        X2        X3        X4        X5        X6        X7        X8
            7      0.000E+00 1.000E+01 8.000E+01 1.000E+02 1.500E+02 1.700E+02 2.400E+02 2.500E+02
            8      0.000E+00 1.000E+01 8.000E+01 1.000E+02 1.500E+02 1.700E+02 2.400E+02 2.500E+02

    Z VALUES ARE RELATIVE TO STREAMBED ELEVATION

     SEGMENT NO.          Z1        Z2        Z3        Z4        Z5        Z6        Z7        Z8
            7      2.000E+01 1.300E+01 1.000E+01 2.000E+00 0.000E+00 1.000E+01 1.300E+01 2.000E+01
            8      2.500E+01 1.700E+01 1.300E+01 4.000E+00 0.000E+00 1.000E+01 1.600E+01 2.000E+01

 STREAMFLOW RELATION WITH DEPTH IS BASED ON EQUATION Q = CDPTH*(DEPTH)**FDPTH
 STREAMFLOW RELATION WITH WIDTH IS BASED ON EQUATION Q = AWDTH*(WIDTH)**BWDTH

 SEGMENT NO.      CDPTH     FDPTH    AWDTH     BWDTH

          5 3.000E-01 3.500E-01 3.800E+00 6.000E-01

 STREAMFLOW RELATION WITH DEPTH AND WIDTH IS BASED ON TABULATED VALUES

  SEGMENT NO.   STREAMFLOW       DEPTH       WIDTH

          1     5.0000E-01   2.5000E-01   3.0000E+00
          1     1.0000E+00   4.0000E-01   3.5000E+00
          1     2.0000E+00   5.5000E-01   4.2000E+00
          1     4.0000E+00   7.0000E-01   5.3000E+00
          1     7.0000E+00   8.0000E-01   7.0000E+00
          1     1.0000E+01   9.0000E-01   8.5000E+00
          1     2.0000E+01   1.1000E+00   1.2000E+01
          1     3.0000E+01   1.2500E+00   1.4000E+01
          1     5.0000E+01   1.4000E+00   1.7000E+01
          1     7.5000E+01   1.7000E+00   2.0000E+01
          1     1.0000E+02   1.8000E+00   2.2000E+01



TABULAR INFLOWS WERE READ FOR SEGMENT      1
FROM FILE UNIT NUMBER     55

          TIMES                    INFLOWS
         0.0000000000E+00     0.3750000000E+01
         0.8640000000E+05     0.1650000000E+02
         0.2760000000E+07     0.3150000000E+02
         0.5270000000E+07     0.5775000000E+02
         0.7950000000E+07     0.2100000000E+02
         0.1050000000E+08     0.7425000000E+02
         0.1320000000E+08     0.6225000000E+02
         0.1580000000E+08     0.5625000000E+02
         0.1850000000E+08     0.4575000000E+02
         0.2120000000E+08     0.3525000000E+02
         0.2380000000E+08     0.2625000000E+02
         0.2640000000E+08     0.1950000000E+02
         0.2900000000E+08     0.1725000000E+02
         0.3170000000E+08     0.1425000000E+02
         0.3440000000E+08     0.1575000000E+02
         0.3680000000E+08     0.7350000000E+02
         0.3950000000E+08     0.5625000000E+02
         0.4210000000E+08     0.4725000000E+02
         0.4480000000E+08     0.4350000000E+02
         0.4730000000E+08     0.4050000000E+02
         0.5000000000E+08     0.2775000000E+02
         0.5270000000E+08     0.1875000000E+02
         0.5530000000E+08     0.1650000000E+02
         0.5800000000E+08     0.1575000000E+02
         0.6060000000E+08     0.1500000000E+02
         0.6320000000E+08     0.1425000000E+02
         0.6330000000E+08     0.1650000000E+02
         0.6600000000E+08     0.3150000000E+02
         0.6850000000E+08     0.5775000000E+02
         0.7120000000E+08     0.2100000000E+02
         0.7370000000E+08     0.7425000000E+02
         0.7640000000E+08     0.6225000000E+02
         0.7900000000E+08     0.5625000000E+02
         0.8170000000E+08     0.4575000000E+02
         0.8440000000E+08     0.3525000000E+02
         0.8700000000E+08     0.2625000000E+02
         0.8960000000E+08     0.1950000000E+02
         0.9220000000E+08     0.1725000000E+02
         0.9490000000E+08     0.1425000000E+02
         0.9760000000E+08     0.1575000000E+02
         0.1000000000E+09     0.7350000000E+02
         0.1030000000E+09     0.5625000000E+02
         0.1050000000E+09     0.4725000000E+02
         0.1080000000E+09     0.4350000000E+02
         0.1110000000E+09     0.4050000000E+02
         0.1130000000E+09     0.2775000000E+02
         0.1160000000E+09     0.1875000000E+02
         0.1190000000E+09     0.1650000000E+02
         0.1210000000E+09     0.1575000000E+02
         0.1240000000E+09     0.1500000000E+02
         0.1260000000E+09     0.1425000000E+02
TABULAR INFLOWS WERE READ FOR SEGMENT      9
FROM FILE UNIT NUMBER     56

          TIMES                    INFLOWS
         0.0000000000E+00     0.1000000000E+03
         0.8640000000E+05     0.1000000000E+03
         0.1730000000E+06     0.1000000000E+03
         0.2590000000E+06     0.1000000000E+03
         0.3460000000E+06     0.1000000000E+03
         0.4320000000E+06     0.1000000000E+03
         0.5180000000E+06     0.1000000000E+03
         0.6050000000E+06     0.1000000000E+03
         0.6910000000E+06     0.1000000000E+03
         0.7780000000E+06     0.1000000000E+03
         0.8640000000E+06     0.1000000000E+03
         0.9500000000E+06     0.1000000000E+03
         0.1040000000E+07     0.1000000000E+03
         0.1120000000E+07     0.1000000000E+03
         0.1210000000E+07     0.1000000000E+03
         0.1300000000E+07     0.1000000000E+03
         0.1380000000E+07     0.1000000000E+03
         0.1470000000E+07     0.1000000000E+03
         0.1560000000E+07     0.1000000000E+03
         0.1640000000E+07     0.1000000000E+03
         0.1730000000E+07     0.1000000000E+03
         0.1810000000E+07     0.1000000000E+03
         0.1900000000E+07     0.1000000000E+03
         0.1990000000E+07     0.1000000000E+03
         0.2070000000E+07     0.1000000000E+03
         0.2160000000E+07     0.1000000000E+03
         0.2250000000E+07     0.1000000000E+03
         0.2330000000E+07     0.1000000000E+03
         0.2420000000E+07     0.1000000000E+03
         0.2510000000E+07     0.1000000000E+03
         0.2590000000E+07     0.1000000000E+03
         0.2680000000E+07     0.1000000000E+03
         0.2760000000E+07     0.1000000000E+03
         0.2850000000E+07     0.1000000000E+03
         0.2940000000E+07     0.1000000000E+03
         0.3020000000E+07     0.1000000000E+03
         0.3110000000E+07     0.1000000000E+03
         0.3200000000E+07     0.1000000000E+03
         0.3280000000E+07     0.1000000000E+03
         0.3370000000E+07     0.1000000000E+03
         0.3460000000E+07     0.1000000000E+03
         0.3540000000E+07     0.1000000000E+03
         0.3630000000E+07     0.1000000000E+03
         0.3720000000E+07     0.1000000000E+03
         0.3800000000E+07     0.1000000000E+03
         0.3890000000E+07     0.1000000000E+03
         0.3970000000E+07     0.1000000000E+03
         0.4060000000E+07     0.1000000000E+03
         0.4150000000E+07     0.1000000000E+03
         0.4230000000E+07     0.1000000000E+03
         0.4320000000E+07     0.1000000000E+03
         0.4410000000E+07     0.1000000000E+03
         0.4490000000E+07     0.1000000000E+03
         0.4580000000E+07     0.1000000000E+03
         0.4670000000E+07     0.1000000000E+03
         0.4750000000E+07     0.1000000000E+03
         0.4840000000E+07     0.1000000000E+03
         0.4920000000E+07     0.1000000000E+03
         0.5010000000E+07     0.1000000000E+03
         0.5100000000E+07     0.1000000000E+03
         0.5180000000E+07     0.1000000000E+03
         0.5270000000E+07     0.1000000000E+03
         0.5360000000E+07     0.1000000000E+03
         0.5440000000E+07     0.1000000000E+03
         0.5530000000E+07     0.1000000000E+03
         0.5620000000E+07     0.1000000000E+03
         0.5700000000E+07     0.1000000000E+03
         0.5790000000E+07     0.1000000000E+03
         0.5880000000E+07     0.1000000000E+03
         0.5960000000E+07     0.1000000000E+03
         0.6050000000E+07     0.1000000000E+03
         0.6130000000E+07     0.1000000000E+03
         0.6220000000E+07     0.1000000000E+03
         0.6310000000E+07     0.1000000000E+03
         0.6390000000E+07     0.1000000000E+03
         0.6480000000E+07     0.1000000000E+03
         0.6570000000E+07     0.1000000000E+03
         0.6650000000E+07     0.1000000000E+03
         0.6740000000E+07     0.1000000000E+03
         0.6830000000E+07     0.1000000000E+03
         0.6910000000E+07     0.1000000000E+03
         0.7000000000E+07     0.1000000000E+03
         0.7080000000E+07     0.1000000000E+03
         0.7170000000E+07     0.1000000000E+03
         0.7260000000E+07     0.1000000000E+03
         0.7340000000E+07     0.1000000000E+03
         0.7430000000E+07     0.1000000000E+03
         0.7520000000E+07     0.1000000000E+03
         0.7600000000E+07     0.1000000000E+03
         0.7690000000E+07     0.1000000000E+03
         0.7780000000E+07     0.1000000000E+03
         0.7860000000E+07     0.1000000000E+03
         0.7950000000E+07     0.1000000000E+03
         0.8040000000E+07     0.1000000000E+03
         0.8120000000E+07     0.1000000000E+03
         0.8210000000E+07     0.1000000000E+03
         0.8290000000E+07     0.1000000000E+03
         0.8380000000E+07     0.1000000000E+03
         0.8470000000E+07     0.1000000000E+03
         0.8550000000E+07     0.1000000000E+03
         0.8640000000E+07     0.1000000000E+03
         0.8730000000E+07     0.1000000000E+03
         0.8810000000E+07     0.1000000000E+03
         0.8900000000E+07     0.1000000000E+03
         0.8990000000E+07     0.1000000000E+03
         0.9070000000E+07     0.1000000000E+03
         0.9160000000E+07     0.1000000000E+03
         0.9240000000E+07     0.1000000000E+03
         0.9330000000E+07     0.1000000000E+03
         0.9420000000E+07     0.1000000000E+03
         0.9500000000E+07     0.1000000000E+03
         0.9590000000E+07     0.1000000000E+03
         0.9680000000E+07     0.1000000000E+03
         0.9760000000E+07     0.1000000000E+03
         0.9850000000E+07     0.1000000000E+03
         0.9940000000E+07     0.1000000000E+03
         0.1000000000E+08     0.1000000000E+03
         0.1010000000E+08     0.1000000000E+03
         0.1020000000E+08     0.1000000000E+03
         0.1030000000E+08     0.1000000000E+03
         0.1040000000E+08     0.1000000000E+03
         0.1050000000E+08     0.1000000000E+03
         0.1050000000E+08     0.1000000000E+03
         0.1060000000E+08     0.1000000000E+03
         0.1070000000E+08     0.1000000000E+03
         0.1080000000E+08     0.1000000000E+03
         0.1090000000E+08     0.1000000000E+03
         0.1100000000E+08     0.1000000000E+03
         0.1110000000E+08     0.1000000000E+03
         0.1110000000E+08     0.1000000000E+03
         0.1120000000E+08     0.1000000000E+03
         0.1130000000E+08     0.1000000000E+03
         0.1140000000E+08     0.1000000000E+03
         0.1150000000E+08     0.1000000000E+03
         0.1160000000E+08     0.1000000000E+03
         0.1170000000E+08     0.1000000000E+03
         0.1180000000E+08     0.1000000000E+03
         0.1180000000E+08     0.1000000000E+03
         0.1190000000E+08     0.1000000000E+03
         0.1200000000E+08     0.1000000000E+03
         0.1210000000E+08     0.1000000000E+03
         0.1220000000E+08     0.1000000000E+03
         0.1230000000E+08     0.1000000000E+03
         0.1240000000E+08     0.1000000000E+03
         0.1240000000E+08     0.1000000000E+03
         0.1250000000E+08     0.1000000000E+03
         0.1260000000E+08     0.1000000000E+03
         0.1270000000E+08     0.1000000000E+03
         0.1280000000E+08     0.1000000000E+03
         0.1290000000E+08     0.1000000000E+03
         0.1300000000E+08     0.1000000000E+03
         0.1300000000E+08     0.1000000000E+03
         0.1310000000E+08     0.1000000000E+03
         0.1320000000E+08     0.1000000000E+03
         0.1330000000E+08     0.1000000000E+03
         0.1340000000E+08     0.1000000000E+03
         0.1350000000E+08     0.1000000000E+03
         0.1360000000E+08     0.1000000000E+03
         0.1370000000E+08     0.1000000000E+03
         0.1370000000E+08     0.1000000000E+03
         0.1380000000E+08     0.1000000000E+03
         0.1390000000E+08     0.1000000000E+03
         0.1400000000E+08     0.1000000000E+03
         0.1410000000E+08     0.1000000000E+03
         0.1420000000E+08     0.1000000000E+03
         0.1430000000E+08     0.1000000000E+03
         0.1430000000E+08     0.1000000000E+03
         0.1440000000E+08     0.1000000000E+03
         0.1450000000E+08     0.1000000000E+03
         0.1460000000E+08     0.1000000000E+03
         0.1470000000E+08     0.1000000000E+03
         0.1480000000E+08     0.1000000000E+03
         0.1490000000E+08     0.1000000000E+03
         0.1490000000E+08     0.1000000000E+03
         0.1500000000E+08     0.1000000000E+03
         0.1510000000E+08     0.1000000000E+03
         0.1520000000E+08     0.1000000000E+03
         0.1530000000E+08     0.1000000000E+03
         0.1540000000E+08     0.1000000000E+03
         0.1550000000E+08     0.1000000000E+03
         0.1560000000E+08     0.1000000000E+03
         0.1560000000E+08     0.1000000000E+03
         0.1570000000E+08     0.1000000000E+03
         0.1580000000E+08     0.1000000000E+03
         0.1590000000E+08     0.1000000000E+03
         0.1600000000E+08     0.1000000000E+03
         0.1610000000E+08     0.1000000000E+03
         0.1620000000E+08     0.1000000000E+03
         0.1620000000E+08     0.1000000000E+03
         0.1630000000E+08     0.1000000000E+03
         0.1640000000E+08     0.1000000000E+03
         0.1650000000E+08     0.1000000000E+03
         0.1660000000E+08     0.1000000000E+03
         0.1670000000E+08     0.1000000000E+03
         0.1680000000E+08     0.1000000000E+03
         0.1680000000E+08     0.1000000000E+03
         0.1690000000E+08     0.1000000000E+03
         0.1700000000E+08     0.1000000000E+03
         0.1710000000E+08     0.1000000000E+03
         0.1720000000E+08     0.1000000000E+03
         0.1730000000E+08     0.1000000000E+03
         0.1740000000E+08     0.1000000000E+03
         0.1750000000E+08     0.1000000000E+03
         0.1750000000E+08     0.1000000000E+03
         0.1760000000E+08     0.1000000000E+03
         0.1770000000E+08     0.1000000000E+03
         0.1780000000E+08     0.1000000000E+03
         0.1790000000E+08     0.1000000000E+03
         0.1800000000E+08     0.1000000000E+03
         0.1810000000E+08     0.1000000000E+03
         0.1810000000E+08     0.1000000000E+03
         0.1820000000E+08     0.1000000000E+03
         0.1830000000E+08     0.1000000000E+03
         0.1840000000E+08     0.1000000000E+03
         0.1850000000E+08     0.1000000000E+03
         0.1860000000E+08     0.1000000000E+03
         0.1870000000E+08     0.1000000000E+03
         0.1870000000E+08     0.1000000000E+03
         0.1880000000E+08     0.1000000000E+03
         0.1890000000E+08     0.1000000000E+03
         0.1900000000E+08     0.1000000000E+03
         0.1910000000E+08     0.1000000000E+03
         0.1920000000E+08     0.1000000000E+03
         0.1930000000E+08     0.1000000000E+03
         0.1940000000E+08     0.1000000000E+03
         0.1940000000E+08     0.1000000000E+03
         0.1950000000E+08     0.1000000000E+03
         0.1960000000E+08     0.1000000000E+03
         0.1970000000E+08     0.1000000000E+03
         0.1980000000E+08     0.1000000000E+03
         0.1990000000E+08     0.1000000000E+03
         0.2000000000E+08     0.1000000000E+03
         0.2000000000E+08     0.1000000000E+03
         0.2010000000E+08     0.1000000000E+03
         0.2020000000E+08     0.1000000000E+03
         0.2030000000E+08     0.1000000000E+03
         0.2040000000E+08     0.1000000000E+03
         0.2050000000E+08     0.1000000000E+03
         0.2060000000E+08     0.1000000000E+03
         0.2070000000E+08     0.1000000000E+03
         0.2070000000E+08     0.1000000000E+03
         0.2080000000E+08     0.1000000000E+03
         0.2090000000E+08     0.1000000000E+03
         0.2100000000E+08     0.1000000000E+03
         0.2110000000E+08     0.1000000000E+03
         0.2120000000E+08     0.1000000000E+03
         0.2130000000E+08     0.1000000000E+03
         0.2130000000E+08     0.1000000000E+03
         0.2140000000E+08     0.1000000000E+03
         0.2150000000E+08     0.1000000000E+03
         0.2160000000E+08     0.1000000000E+03
         0.2170000000E+08     0.1000000000E+03
         0.2180000000E+08     0.1000000000E+03
         0.2190000000E+08     0.1000000000E+03
         0.2190000000E+08     0.1000000000E+03
         0.2200000000E+08     0.1000000000E+03
         0.2210000000E+08     0.1000000000E+03
         0.2220000000E+08     0.1000000000E+03
         0.2230000000E+08     0.1000000000E+03
         0.2240000000E+08     0.1000000000E+03
         0.2250000000E+08     0.1000000000E+03
         0.2260000000E+08     0.1000000000E+03
         0.2260000000E+08     0.1000000000E+03
         0.2270000000E+08     0.1000000000E+03
         0.2280000000E+08     0.1000000000E+03
         0.2290000000E+08     0.1000000000E+03
         0.2300000000E+08     0.1000000000E+03
         0.2310000000E+08     0.1000000000E+03
         0.2320000000E+08     0.1000000000E+03
         0.2320000000E+08     0.1000000000E+03
         0.2330000000E+08     0.1000000000E+03
         0.2340000000E+08     0.1000000000E+03
         0.2350000000E+08     0.1000000000E+03
         0.2360000000E+08     0.1000000000E+03
         0.2370000000E+08     0.1000000000E+03
         0.2380000000E+08     0.1000000000E+03
         0.2380000000E+08     0.1000000000E+03
         0.2390000000E+08     0.1000000000E+03
         0.2400000000E+08     0.1000000000E+03
         0.2410000000E+08     0.1000000000E+03
         0.2420000000E+08     0.1000000000E+03
         0.2430000000E+08     0.1000000000E+03
         0.2440000000E+08     0.1000000000E+03
         0.2450000000E+08     0.1000000000E+03
         0.2450000000E+08     0.1000000000E+03
         0.2460000000E+08     0.1000000000E+03
         0.2470000000E+08     0.1000000000E+03
         0.2480000000E+08     0.1000000000E+03
         0.2490000000E+08     0.1000000000E+03
         0.2500000000E+08     0.1000000000E+03
         0.2510000000E+08     0.1000000000E+03
         0.2510000000E+08     0.1000000000E+03
         0.2520000000E+08     0.1000000000E+03
         0.2530000000E+08     0.1000000000E+03
         0.2540000000E+08     0.1000000000E+03
         0.2550000000E+08     0.1000000000E+03
         0.2560000000E+08     0.1000000000E+03
         0.2570000000E+08     0.1000000000E+03
         0.2570000000E+08     0.1000000000E+03
         0.2580000000E+08     0.1000000000E+03
         0.2590000000E+08     0.1000000000E+03
         0.2600000000E+08     0.1000000000E+03
         0.2610000000E+08     0.1000000000E+03
         0.2620000000E+08     0.1000000000E+03
         0.2630000000E+08     0.1000000000E+03
         0.2640000000E+08     0.1000000000E+03
         0.2640000000E+08     0.1000000000E+03
         0.2650000000E+08     0.1000000000E+03
         0.2660000000E+08     0.1000000000E+03
         0.2670000000E+08     0.1000000000E+03
         0.2680000000E+08     0.1000000000E+03
         0.2690000000E+08     0.1000000000E+03
         0.2700000000E+08     0.1000000000E+03
         0.2700000000E+08     0.1000000000E+03
         0.2710000000E+08     0.1000000000E+03
         0.2720000000E+08     0.1000000000E+03
         0.2730000000E+08     0.1000000000E+03
         0.2740000000E+08     0.1000000000E+03
         0.2750000000E+08     0.1000000000E+03
         0.2760000000E+08     0.1000000000E+03
         0.2760000000E+08     0.1000000000E+03
         0.2770000000E+08     0.1000000000E+03
         0.2780000000E+08     0.1000000000E+03
         0.2790000000E+08     0.1000000000E+03
         0.2800000000E+08     0.1000000000E+03
         0.2810000000E+08     0.1000000000E+03
         0.2820000000E+08     0.1000000000E+03
         0.2830000000E+08     0.1000000000E+03
         0.2830000000E+08     0.1000000000E+03
         0.2840000000E+08     0.1000000000E+03
         0.2850000000E+08     0.1000000000E+03
         0.2860000000E+08     0.1000000000E+03
         0.2870000000E+08     0.1000000000E+03
         0.2880000000E+08     0.1000000000E+03
         0.2890000000E+08     0.1000000000E+03
         0.2890000000E+08     0.1000000000E+03
         0.2900000000E+08     0.1000000000E+03
         0.2910000000E+08     0.1000000000E+03
         0.2920000000E+08     0.1000000000E+03
         0.2930000000E+08     0.1000000000E+03
         0.2940000000E+08     0.1000000000E+03
         0.2950000000E+08     0.1000000000E+03
         0.2950000000E+08     0.1000000000E+03
         0.2960000000E+08     0.1000000000E+03
         0.2970000000E+08     0.1000000000E+03
         0.2980000000E+08     0.1000000000E+03
         0.2990000000E+08     0.1000000000E+03
         0.3000000000E+08     0.1000000000E+03
         0.3010000000E+08     0.1000000000E+03
         0.3020000000E+08     0.1000000000E+03
         0.3020000000E+08     0.1000000000E+03
         0.3030000000E+08     0.1000000000E+03
         0.3040000000E+08     0.1000000000E+03
         0.3050000000E+08     0.1000000000E+03
         0.3060000000E+08     0.1000000000E+03
         0.3070000000E+08     0.1000000000E+03
         0.3080000000E+08     0.1000000000E+03
         0.3080000000E+08     0.1000000000E+03
         0.3090000000E+08     0.1000000000E+03
         0.3100000000E+08     0.1000000000E+03
         0.3110000000E+08     0.1000000000E+03
         0.3120000000E+08     0.1000000000E+03
         0.3130000000E+08     0.1000000000E+03
         0.3140000000E+08     0.1000000000E+03
         0.3150000000E+08     0.1000000000E+03
         0.3150000000E+08     0.1000000000E+03
         0.3160000000E+08     0.1000000000E+03
         0.3170000000E+08     0.1000000000E+03
         0.3180000000E+08     0.1000000000E+03
         0.3190000000E+08     0.1000000000E+03
         0.3200000000E+08     0.1000000000E+03
         0.3210000000E+08     0.1000000000E+03
         0.3210000000E+08     0.1000000000E+03
         0.3220000000E+08     0.1000000000E+03
         0.3230000000E+08     0.1000000000E+03
         0.3240000000E+08     0.1000000000E+03
         0.3250000000E+08     0.1000000000E+03
         0.3260000000E+08     0.1000000000E+03
         0.3270000000E+08     0.1000000000E+03
         0.3270000000E+08     0.1000000000E+03
         0.3280000000E+08     0.1000000000E+03
         0.3290000000E+08     0.1000000000E+03
         0.3300000000E+08     0.1000000000E+03
         0.3310000000E+08     0.1000000000E+03
         0.3320000000E+08     0.1000000000E+03
         0.3330000000E+08     0.1000000000E+03
         0.3340000000E+08     0.1000000000E+03
         0.3340000000E+08     0.1000000000E+03
         0.3350000000E+08     0.1000000000E+03
         0.3360000000E+08     0.1000000000E+03
         0.3370000000E+08     0.1000000000E+03
         0.3380000000E+08     0.1000000000E+03
         0.3390000000E+08     0.1000000000E+03
         0.3400000000E+08     0.1000000000E+03
         0.3400000000E+08     0.1000000000E+03
         0.3410000000E+08     0.1000000000E+03
         0.3420000000E+08     0.1000000000E+03
         0.3430000000E+08     0.1000000000E+03
         0.3440000000E+08     0.1000000000E+03
         0.3450000000E+08     0.1000000000E+03
         0.3460000000E+08     0.1000000000E+03
         0.3460000000E+08     0.1000000000E+03
         0.3470000000E+08     0.1000000000E+03
         0.3480000000E+08     0.1000000000E+03
         0.3490000000E+08     0.1000000000E+03
         0.3500000000E+08     0.1000000000E+03
         0.3510000000E+08     0.1000000000E+03
         0.3520000000E+08     0.1000000000E+03
         0.3530000000E+08     0.1000000000E+03
         0.3530000000E+08     0.1000000000E+03
         0.3540000000E+08     0.1000000000E+03
         0.3550000000E+08     0.1000000000E+03
         0.3560000000E+08     0.1000000000E+03
         0.3570000000E+08     0.1000000000E+03
         0.3580000000E+08     0.1000000000E+03
         0.3590000000E+08     0.1000000000E+03
         0.3590000000E+08     0.1000000000E+03
         0.3600000000E+08     0.1000000000E+03
         0.3610000000E+08     0.1000000000E+03
         0.3620000000E+08     0.1000000000E+03
         0.3630000000E+08     0.1000000000E+03
         0.3640000000E+08     0.1000000000E+03
         0.3650000000E+08     0.1000000000E+03
         0.3650000000E+08     0.1000000000E+03
         0.3660000000E+08     0.1000000000E+03
         0.3670000000E+08     0.1000000000E+03
         0.3680000000E+08     0.1000000000E+03
         0.3690000000E+08     0.1000000000E+03
         0.3700000000E+08     0.1000000000E+03
         0.3710000000E+08     0.1000000000E+03
         0.3720000000E+08     0.1000000000E+03
         0.3720000000E+08     0.1000000000E+03
         0.3730000000E+08     0.1000000000E+03
         0.3740000000E+08     0.1000000000E+03
         0.3750000000E+08     0.1000000000E+03
         0.3760000000E+08     0.1000000000E+03
         0.3770000000E+08     0.1000000000E+03
         0.3780000000E+08     0.1000000000E+03
         0.3780000000E+08     0.1000000000E+03
         0.3790000000E+08     0.1000000000E+03
         0.3800000000E+08     0.1000000000E+03
         0.3810000000E+08     0.1000000000E+03
         0.3820000000E+08     0.1000000000E+03
         0.3830000000E+08     0.1000000000E+03
         0.3840000000E+08     0.1000000000E+03
         0.3840000000E+08     0.1000000000E+03
         0.3850000000E+08     0.1000000000E+03
         0.3860000000E+08     0.1000000000E+03
         0.3870000000E+08     0.1000000000E+03
         0.3880000000E+08     0.1000000000E+03
         0.3890000000E+08     0.1000000000E+03
         0.3900000000E+08     0.1000000000E+03
         0.3910000000E+08     0.1000000000E+03
         0.3910000000E+08     0.1000000000E+03
         0.3920000000E+08     0.1000000000E+03
         0.3930000000E+08     0.1000000000E+03
         0.3940000000E+08     0.1000000000E+03
         0.3950000000E+08     0.1000000000E+03
         0.3960000000E+08     0.1000000000E+03
         0.3970000000E+08     0.1000000000E+03
         0.3970000000E+08     0.1000000000E+03
         0.3980000000E+08     0.1000000000E+03
         0.3990000000E+08     0.1000000000E+03
         0.4000000000E+08     0.1000000000E+03
         0.4010000000E+08     0.1000000000E+03
         0.4020000000E+08     0.1000000000E+03
         0.4030000000E+08     0.1000000000E+03
         0.4030000000E+08     0.1000000000E+03
         0.4040000000E+08     0.1000000000E+03
         0.4050000000E+08     0.1000000000E+03
         0.4060000000E+08     0.1000000000E+03
         0.4070000000E+08     0.1000000000E+03
         0.4080000000E+08     0.1000000000E+03
         0.4090000000E+08     0.1000000000E+03
         0.4100000000E+08     0.1000000000E+03
         0.4100000000E+08     0.1000000000E+03
         0.4110000000E+08     0.1000000000E+03
         0.4120000000E+08     0.1000000000E+03
         0.4130000000E+08     0.1000000000E+03
         0.4140000000E+08     0.1000000000E+03
         0.4150000000E+08     0.1000000000E+03
         0.4160000000E+08     0.1000000000E+03
         0.4160000000E+08     0.1000000000E+03
         0.4170000000E+08     0.1000000000E+03
         0.4180000000E+08     0.1000000000E+03
         0.4190000000E+08     0.1000000000E+03
         0.4200000000E+08     0.1000000000E+03
         0.4210000000E+08     0.1000000000E+03
         0.4220000000E+08     0.1000000000E+03
         0.4230000000E+08     0.1000000000E+03
         0.4230000000E+08     0.1000000000E+03
         0.4240000000E+08     0.1000000000E+03
         0.4250000000E+08     0.1000000000E+03
         0.4260000000E+08     0.1000000000E+03
         0.4270000000E+08     0.1000000000E+03
         0.4280000000E+08     0.1000000000E+03
         0.4290000000E+08     0.1000000000E+03
         0.4290000000E+08     0.1000000000E+03
         0.4300000000E+08     0.1000000000E+03
         0.4310000000E+08     0.1000000000E+03
         0.4320000000E+08     0.1000000000E+03
         0.4330000000E+08     0.1000000000E+03
         0.4340000000E+08     0.1000000000E+03
         0.4350000000E+08     0.1000000000E+03
         0.4350000000E+08     0.1000000000E+03
         0.4360000000E+08     0.1000000000E+03
         0.4370000000E+08     0.1000000000E+03
         0.4380000000E+08     0.1000000000E+03
         0.4390000000E+08     0.1000000000E+03
         0.4400000000E+08     0.1000000000E+03
         0.4410000000E+08     0.1000000000E+03
         0.4420000000E+08     0.1000000000E+03
         0.4420000000E+08     0.1000000000E+03
         0.4430000000E+08     0.1000000000E+03
         0.4440000000E+08     0.1000000000E+03
         0.4450000000E+08     0.1000000000E+03
         0.4460000000E+08     0.1000000000E+03
         0.4470000000E+08     0.1000000000E+03
         0.4480000000E+08     0.1000000000E+03
         0.4480000000E+08     0.1000000000E+03
         0.4490000000E+08     0.1000000000E+03
         0.4500000000E+08     0.1000000000E+03
         0.4510000000E+08     0.1000000000E+03
         0.4520000000E+08     0.1000000000E+03
         0.4530000000E+08     0.1000000000E+03
         0.4540000000E+08     0.1000000000E+03
         0.4540000000E+08     0.1000000000E+03
         0.4550000000E+08     0.1000000000E+03
         0.4560000000E+08     0.1000000000E+03
         0.4570000000E+08     0.1000000000E+03
         0.4580000000E+08     0.1000000000E+03
         0.4590000000E+08     0.1000000000E+03
         0.4600000000E+08     0.1000000000E+03
         0.4610000000E+08     0.1000000000E+03
         0.4610000000E+08     0.1000000000E+03
         0.4620000000E+08     0.1000000000E+03
         0.4630000000E+08     0.1000000000E+03
         0.4640000000E+08     0.1000000000E+03
         0.4650000000E+08     0.1000000000E+03
         0.4660000000E+08     0.1000000000E+03
         0.4670000000E+08     0.1000000000E+03
         0.4670000000E+08     0.1000000000E+03
         0.4680000000E+08     0.1000000000E+03
         0.4690000000E+08     0.1000000000E+03
         0.4700000000E+08     0.1000000000E+03
         0.4710000000E+08     0.1000000000E+03
         0.4720000000E+08     0.1000000000E+03
         0.4730000000E+08     0.1000000000E+03
         0.4730000000E+08     0.1000000000E+03
         0.4740000000E+08     0.1000000000E+03
         0.4750000000E+08     0.1000000000E+03
         0.4760000000E+08     0.1000000000E+03
         0.4770000000E+08     0.1000000000E+03
         0.4780000000E+08     0.1000000000E+03
         0.4790000000E+08     0.1000000000E+03
         0.4800000000E+08     0.1000000000E+03
         0.4800000000E+08     0.1000000000E+03
         0.4810000000E+08     0.1000000000E+03
         0.4820000000E+08     0.1000000000E+03
         0.4830000000E+08     0.1000000000E+03
         0.4840000000E+08     0.1000000000E+03
         0.4850000000E+08     0.1000000000E+03
         0.4860000000E+08     0.1000000000E+03
         0.4860000000E+08     0.1000000000E+03
         0.4870000000E+08     0.1000000000E+03
         0.4880000000E+08     0.1000000000E+03
         0.4890000000E+08     0.1000000000E+03
         0.4900000000E+08     0.1000000000E+03
         0.4910000000E+08     0.1000000000E+03
         0.4920000000E+08     0.1000000000E+03
         0.4920000000E+08     0.1000000000E+03
         0.4930000000E+08     0.1000000000E+03
         0.4940000000E+08     0.1000000000E+03
         0.4950000000E+08     0.1000000000E+03
         0.4960000000E+08     0.1000000000E+03
         0.4970000000E+08     0.1000000000E+03
         0.4980000000E+08     0.1000000000E+03
         0.4990000000E+08     0.1000000000E+03
         0.4990000000E+08     0.1000000000E+03
         0.5000000000E+08     0.1000000000E+03
         0.5010000000E+08     0.1000000000E+03
         0.5020000000E+08     0.1000000000E+03
         0.5030000000E+08     0.1000000000E+03
         0.5040000000E+08     0.1000000000E+03
         0.5050000000E+08     0.1000000000E+03
         0.5050000000E+08     0.1000000000E+03
         0.5060000000E+08     0.1000000000E+03
         0.5070000000E+08     0.1000000000E+03
         0.5080000000E+08     0.1000000000E+03
         0.5090000000E+08     0.1000000000E+03
         0.5100000000E+08     0.1000000000E+03
         0.5110000000E+08     0.1000000000E+03
         0.5110000000E+08     0.1000000000E+03
         0.5120000000E+08     0.1000000000E+03
         0.5130000000E+08     0.1000000000E+03
         0.5140000000E+08     0.1000000000E+03
         0.5150000000E+08     0.1000000000E+03
         0.5160000000E+08     0.1000000000E+03
         0.5170000000E+08     0.1000000000E+03
         0.5180000000E+08     0.1000000000E+03
         0.5180000000E+08     0.1000000000E+03
         0.5190000000E+08     0.1000000000E+03
         0.5200000000E+08     0.1000000000E+03
         0.5210000000E+08     0.1000000000E+03
         0.5220000000E+08     0.1000000000E+03
         0.5230000000E+08     0.1000000000E+03
         0.5240000000E+08     0.1000000000E+03
         0.5240000000E+08     0.1000000000E+03
         0.5250000000E+08     0.1000000000E+03
         0.5260000000E+08     0.1000000000E+03
         0.5270000000E+08     0.1000000000E+03
         0.5280000000E+08     0.1000000000E+03
         0.5290000000E+08     0.1000000000E+03
         0.5300000000E+08     0.1000000000E+03
         0.5310000000E+08     0.1000000000E+03
         0.5310000000E+08     0.1000000000E+03
         0.5320000000E+08     0.1000000000E+03
         0.5330000000E+08     0.1000000000E+03
         0.5340000000E+08     0.1000000000E+03
         0.5350000000E+08     0.1000000000E+03
         0.5360000000E+08     0.1000000000E+03
         0.5370000000E+08     0.1000000000E+03
         0.5370000000E+08     0.1000000000E+03
         0.5380000000E+08     0.1000000000E+03
         0.5390000000E+08     0.1000000000E+03
         0.5400000000E+08     0.1000000000E+03
         0.5410000000E+08     0.1000000000E+03
         0.5420000000E+08     0.1000000000E+03
         0.5430000000E+08     0.1000000000E+03
         0.5430000000E+08     0.1000000000E+03
         0.5440000000E+08     0.1000000000E+03
         0.5450000000E+08     0.1000000000E+03
         0.5460000000E+08     0.1000000000E+03
         0.5470000000E+08     0.1000000000E+03
         0.5480000000E+08     0.1000000000E+03
         0.5490000000E+08     0.1000000000E+03
         0.5500000000E+08     0.1000000000E+03
         0.5500000000E+08     0.1000000000E+03
         0.5510000000E+08     0.1000000000E+03
         0.5520000000E+08     0.1000000000E+03
         0.5530000000E+08     0.1000000000E+03
         0.5540000000E+08     0.1000000000E+03
         0.5550000000E+08     0.1000000000E+03
         0.5560000000E+08     0.1000000000E+03
         0.5560000000E+08     0.1000000000E+03
         0.5570000000E+08     0.1000000000E+03
         0.5580000000E+08     0.1000000000E+03
         0.5590000000E+08     0.1000000000E+03
         0.5600000000E+08     0.1000000000E+03
         0.5610000000E+08     0.1000000000E+03
         0.5620000000E+08     0.1000000000E+03
         0.5620000000E+08     0.1000000000E+03
         0.5630000000E+08     0.1000000000E+03
         0.5640000000E+08     0.1000000000E+03
         0.5650000000E+08     0.1000000000E+03
         0.5660000000E+08     0.1000000000E+03
         0.5670000000E+08     0.1000000000E+03
         0.5680000000E+08     0.1000000000E+03
         0.5690000000E+08     0.1000000000E+03
         0.5690000000E+08     0.1000000000E+03
         0.5700000000E+08     0.1000000000E+03
         0.5710000000E+08     0.1000000000E+03
         0.5720000000E+08     0.1000000000E+03
         0.5730000000E+08     0.1000000000E+03
         0.5740000000E+08     0.1000000000E+03
         0.5750000000E+08     0.1000000000E+03
         0.5750000000E+08     0.1000000000E+03
         0.5760000000E+08     0.1000000000E+03
         0.5770000000E+08     0.1000000000E+03
         0.5780000000E+08     0.1000000000E+03
         0.5790000000E+08     0.1000000000E+03
         0.5800000000E+08     0.1000000000E+03
         0.5810000000E+08     0.1000000000E+03
         0.5810000000E+08     0.1000000000E+03
         0.5820000000E+08     0.1000000000E+03
         0.5830000000E+08     0.1000000000E+03
         0.5840000000E+08     0.1000000000E+03
         0.5850000000E+08     0.1000000000E+03
         0.5860000000E+08     0.1000000000E+03
         0.5870000000E+08     0.1000000000E+03
         0.5880000000E+08     0.1000000000E+03
         0.5880000000E+08     0.1000000000E+03
         0.5890000000E+08     0.1000000000E+03
         0.5900000000E+08     0.1000000000E+03
         0.5910000000E+08     0.1000000000E+03
         0.5920000000E+08     0.1000000000E+03
         0.5930000000E+08     0.1000000000E+03
         0.5940000000E+08     0.1000000000E+03
         0.5940000000E+08     0.1000000000E+03
         0.5950000000E+08     0.1000000000E+03
         0.5960000000E+08     0.1000000000E+03
         0.5970000000E+08     0.1000000000E+03
         0.5980000000E+08     0.1000000000E+03
         0.5990000000E+08     0.1000000000E+03
         0.6000000000E+08     0.1000000000E+03
         0.6000000000E+08     0.1000000000E+03
         0.6010000000E+08     0.1000000000E+03
         0.6020000000E+08     0.1000000000E+03
         0.6030000000E+08     0.1000000000E+03
         0.6040000000E+08     0.1000000000E+03
         0.6050000000E+08     0.1000000000E+03
         0.6060000000E+08     0.1000000000E+03
         0.6070000000E+08     0.1000000000E+03
         0.6070000000E+08     0.1000000000E+03
         0.6080000000E+08     0.1000000000E+03
         0.6090000000E+08     0.1000000000E+03
         0.6100000000E+08     0.1000000000E+03
         0.6110000000E+08     0.1000000000E+03
         0.6120000000E+08     0.1000000000E+03
         0.6130000000E+08     0.1000000000E+03
         0.6130000000E+08     0.1000000000E+03
         0.6140000000E+08     0.1000000000E+03
         0.6150000000E+08     0.1000000000E+03
         0.6160000000E+08     0.1000000000E+03
         0.6170000000E+08     0.1000000000E+03
         0.6180000000E+08     0.1000000000E+03
         0.6190000000E+08     0.1000000000E+03
         0.6190000000E+08     0.1000000000E+03
         0.6200000000E+08     0.1000000000E+03
         0.6210000000E+08     0.1000000000E+03
         0.6220000000E+08     0.1000000000E+03
         0.6230000000E+08     0.1000000000E+03
         0.6240000000E+08     0.1000000000E+03
         0.6250000000E+08     0.1000000000E+03
         0.6260000000E+08     0.1000000000E+03
         0.6260000000E+08     0.1000000000E+03
         0.6270000000E+08     0.1000000000E+03
         0.6280000000E+08     0.1000000000E+03
         0.6290000000E+08     0.1000000000E+03
         0.6300000000E+08     0.1000000000E+03
         0.6310000000E+08     0.1000000000E+03
         0.6320000000E+08     0.1000000000E+03
         0.6320000000E+08     0.1000000000E+03
         0.6330000000E+08     0.1000000000E+03
         0.6340000000E+08     0.1000000000E+03
         0.6350000000E+08     0.1000000000E+03
         0.6360000000E+08     0.1000000000E+03
         0.6370000000E+08     0.1000000000E+03
         0.6380000000E+08     0.1000000000E+03
         0.6390000000E+08     0.1000000000E+03
         0.6390000000E+08     0.1000000000E+03
         0.6400000000E+08     0.1000000000E+03
         0.6410000000E+08     0.1000000000E+03
         0.6420000000E+08     0.1000000000E+03
         0.6430000000E+08     0.1000000000E+03
         0.6440000000E+08     0.1000000000E+03
         0.6450000000E+08     0.1000000000E+03
         0.6450000000E+08     0.1000000000E+03
         0.6460000000E+08     0.1000000000E+03
         0.6470000000E+08     0.1000000000E+03
         0.6480000000E+08     0.1000000000E+03
         0.6490000000E+08     0.1000000000E+03
         0.6500000000E+08     0.1000000000E+03
         0.6510000000E+08     0.1000000000E+03
         0.6510000000E+08     0.1000000000E+03
         0.6520000000E+08     0.1000000000E+03
         0.6530000000E+08     0.1000000000E+03
         0.6540000000E+08     0.1000000000E+03
         0.6550000000E+08     0.1000000000E+03
         0.6560000000E+08     0.1000000000E+03
         0.6570000000E+08     0.1000000000E+03
         0.6580000000E+08     0.1000000000E+03
         0.6590000000E+08     0.1000000000E+03
         0.6600000000E+08     0.1000000000E+03
         0.6610000000E+08     0.1000000000E+03
         0.6610000000E+08     0.1000000000E+03
         0.6620000000E+08     0.1000000000E+03
         0.6630000000E+08     0.1000000000E+03
         0.6640000000E+08     0.1000000000E+03
         0.6650000000E+08     0.1000000000E+03
         0.6660000000E+08     0.1000000000E+03
         0.6670000000E+08     0.1000000000E+03
         0.6670000000E+08     0.1000000000E+03
         0.6680000000E+08     0.1000000000E+03
         0.6690000000E+08     0.1000000000E+03
         0.6700000000E+08     0.1000000000E+03
         0.6710000000E+08     0.1000000000E+03
         0.6720000000E+08     0.1000000000E+03
         0.6730000000E+08     0.1000000000E+03
         0.6730000000E+08     0.1000000000E+03
         0.6740000000E+08     0.1000000000E+03
         0.6750000000E+08     0.1000000000E+03
         0.6760000000E+08     0.1000000000E+03
         0.6770000000E+08     0.1000000000E+03
         0.6780000000E+08     0.1000000000E+03
         0.6790000000E+08     0.1000000000E+03
         0.6800000000E+08     0.1000000000E+03
         0.6810000000E+08     0.1000000000E+03
         0.6820000000E+08     0.1000000000E+03
         0.6830000000E+08     0.1000000000E+03
         0.6830000000E+08     0.1000000000E+03
         0.6840000000E+08     0.1000000000E+03
         0.6850000000E+08     0.1000000000E+03
         0.6860000000E+08     0.1000000000E+03
         0.6870000000E+08     0.1000000000E+03
         0.6880000000E+08     0.1000000000E+03
         0.6890000000E+08     0.1000000000E+03
         0.6890000000E+08     0.1000000000E+03
         0.6900000000E+08     0.1000000000E+03
         0.6910000000E+08     0.1000000000E+03
         0.6920000000E+08     0.1000000000E+03
         0.6930000000E+08     0.1000000000E+03
         0.6940000000E+08     0.1000000000E+03
         0.6950000000E+08     0.1000000000E+03
         0.6950000000E+08     0.1000000000E+03
         0.6960000000E+08     0.1000000000E+03
         0.6970000000E+08     0.1000000000E+03
         0.6980000000E+08     0.1000000000E+03
         0.6990000000E+08     0.1000000000E+03
         0.7000000000E+08     0.1000000000E+03
         0.7010000000E+08     0.1000000000E+03
         0.7020000000E+08     0.1000000000E+03
         0.7030000000E+08     0.1000000000E+03
         0.7040000000E+08     0.1000000000E+03
         0.7050000000E+08     0.1000000000E+03
         0.7050000000E+08     0.1000000000E+03
         0.7060000000E+08     0.1000000000E+03
         0.7070000000E+08     0.1000000000E+03
         0.7080000000E+08     0.1000000000E+03
         0.7090000000E+08     0.1000000000E+03
         0.7100000000E+08     0.1000000000E+03
         0.7110000000E+08     0.1000000000E+03
         0.7110000000E+08     0.1000000000E+03
         0.7120000000E+08     0.1000000000E+03
         0.7130000000E+08     0.1000000000E+03
         0.7140000000E+08     0.1000000000E+03
         0.7150000000E+08     0.1000000000E+03
         0.7160000000E+08     0.1000000000E+03
         0.7170000000E+08     0.1000000000E+03
         0.7170000000E+08     0.1000000000E+03
         0.7180000000E+08     0.1000000000E+03
         0.7190000000E+08     0.1000000000E+03
         0.7200000000E+08     0.1000000000E+03
         0.7210000000E+08     0.1000000000E+03
         0.7220000000E+08     0.1000000000E+03
         0.7230000000E+08     0.1000000000E+03
         0.7240000000E+08     0.1000000000E+03
         0.7250000000E+08     0.1000000000E+03
         0.7260000000E+08     0.1000000000E+03
         0.7270000000E+08     0.1000000000E+03
         0.7270000000E+08     0.1000000000E+03
         0.7280000000E+08     0.1000000000E+03
         0.7290000000E+08     0.1000000000E+03
         0.7300000000E+08     0.1000000000E+03
         0.7310000000E+08     0.1000000000E+03
         0.7320000000E+08     0.1000000000E+03
         0.7330000000E+08     0.1000000000E+03
         0.7330000000E+08     0.1000000000E+03
         0.7340000000E+08     0.1000000000E+03
         0.7350000000E+08     0.1000000000E+03
         0.7360000000E+08     0.1000000000E+03
         0.7370000000E+08     0.1000000000E+03
         0.7380000000E+08     0.1000000000E+03
         0.7390000000E+08     0.1000000000E+03
         0.7390000000E+08     0.1000000000E+03
         0.7400000000E+08     0.1000000000E+03
         0.7410000000E+08     0.1000000000E+03
         0.7420000000E+08     0.1000000000E+03
         0.7430000000E+08     0.1000000000E+03
         0.7440000000E+08     0.1000000000E+03
         0.7450000000E+08     0.1000000000E+03
         0.7460000000E+08     0.1000000000E+03
         0.7470000000E+08     0.1000000000E+03
         0.7480000000E+08     0.1000000000E+03
         0.7490000000E+08     0.1000000000E+03
         0.7490000000E+08     0.1000000000E+03
         0.7500000000E+08     0.1000000000E+03
         0.7510000000E+08     0.1000000000E+03
         0.7520000000E+08     0.1000000000E+03
         0.7530000000E+08     0.1000000000E+03
         0.7540000000E+08     0.1000000000E+03
         0.7550000000E+08     0.1000000000E+03
         0.7550000000E+08     0.1000000000E+03
         0.7560000000E+08     0.1000000000E+03
         0.7570000000E+08     0.1000000000E+03
         0.7580000000E+08     0.1000000000E+03
         0.7590000000E+08     0.1000000000E+03
         0.7600000000E+08     0.1000000000E+03
         0.7610000000E+08     0.1000000000E+03
         0.7610000000E+08     0.1000000000E+03
         0.7620000000E+08     0.1000000000E+03
         0.7630000000E+08     0.1000000000E+03
         0.7640000000E+08     0.1000000000E+03
         0.7650000000E+08     0.1000000000E+03
         0.7660000000E+08     0.1000000000E+03
         0.7670000000E+08     0.1000000000E+03
         0.7680000000E+08     0.1000000000E+03
         0.7690000000E+08     0.1000000000E+03
         0.7700000000E+08     0.1000000000E+03
         0.7710000000E+08     0.1000000000E+03
         0.7710000000E+08     0.1000000000E+03
         0.7720000000E+08     0.1000000000E+03
         0.7730000000E+08     0.1000000000E+03
         0.7740000000E+08     0.1000000000E+03
         0.7750000000E+08     0.1000000000E+03
         0.7760000000E+08     0.1000000000E+03
         0.7770000000E+08     0.1000000000E+03
         0.7770000000E+08     0.1000000000E+03
         0.7780000000E+08     0.1000000000E+03
         0.7790000000E+08     0.1000000000E+03
         0.7800000000E+08     0.1000000000E+03
         0.7810000000E+08     0.1000000000E+03
         0.7820000000E+08     0.1000000000E+03
         0.7830000000E+08     0.1000000000E+03
         0.7830000000E+08     0.1000000000E+03
         0.7840000000E+08     0.1000000000E+03
         0.7850000000E+08     0.1000000000E+03
         0.7860000000E+08     0.1000000000E+03
         0.7870000000E+08     0.1000000000E+03
         0.7880000000E+08     0.1000000000E+03
         0.7890000000E+08     0.1000000000E+03
         0.7900000000E+08     0.1000000000E+03
         0.7910000000E+08     0.1000000000E+03
         0.7920000000E+08     0.1000000000E+03
         0.7930000000E+08     0.1000000000E+03
         0.7930000000E+08     0.1000000000E+03
         0.7940000000E+08     0.1000000000E+03
         0.7950000000E+08     0.1000000000E+03
         0.7960000000E+08     0.1000000000E+03
         0.7970000000E+08     0.1000000000E+03
         0.7980000000E+08     0.1000000000E+03
         0.7990000000E+08     0.1000000000E+03
         0.7990000000E+08     0.1000000000E+03
         0.8000000000E+08     0.1000000000E+03
         0.8010000000E+08     0.1000000000E+03
         0.8020000000E+08     0.1000000000E+03
         0.8030000000E+08     0.1000000000E+03
         0.8040000000E+08     0.1000000000E+03
         0.8050000000E+08     0.1000000000E+03
         0.8050000000E+08     0.1000000000E+03
         0.8060000000E+08     0.1000000000E+03
         0.8070000000E+08     0.1000000000E+03
         0.8080000000E+08     0.1000000000E+03
         0.8090000000E+08     0.1000000000E+03
         0.8100000000E+08     0.1000000000E+03
         0.8110000000E+08     0.1000000000E+03
         0.8120000000E+08     0.1000000000E+03
         0.8130000000E+08     0.1000000000E+03
         0.8140000000E+08     0.1000000000E+03
         0.8150000000E+08     0.1000000000E+03
         0.8150000000E+08     0.1000000000E+03
         0.8160000000E+08     0.1000000000E+03
         0.8170000000E+08     0.1000000000E+03
         0.8180000000E+08     0.1000000000E+03
         0.8190000000E+08     0.1000000000E+03
         0.8200000000E+08     0.1000000000E+03
         0.8210000000E+08     0.1000000000E+03
         0.8210000000E+08     0.1000000000E+03
         0.8220000000E+08     0.1000000000E+03
         0.8230000000E+08     0.1000000000E+03
         0.8240000000E+08     0.1000000000E+03
         0.8250000000E+08     0.1000000000E+03
         0.8260000000E+08     0.1000000000E+03
         0.8270000000E+08     0.1000000000E+03
         0.8270000000E+08     0.1000000000E+03
         0.8280000000E+08     0.1000000000E+03
         0.8290000000E+08     0.1000000000E+03
         0.8300000000E+08     0.1000000000E+03
         0.8310000000E+08     0.1000000000E+03
         0.8320000000E+08     0.1000000000E+03
         0.8330000000E+08     0.1000000000E+03
         0.8340000000E+08     0.1000000000E+03
         0.8350000000E+08     0.1000000000E+03
         0.8360000000E+08     0.1000000000E+03
         0.8370000000E+08     0.1000000000E+03
         0.8370000000E+08     0.1000000000E+03
         0.8380000000E+08     0.1000000000E+03
         0.8390000000E+08     0.1000000000E+03
         0.8400000000E+08     0.1000000000E+03
         0.8410000000E+08     0.1000000000E+03
         0.8420000000E+08     0.1000000000E+03
         0.8430000000E+08     0.1000000000E+03
         0.8430000000E+08     0.1000000000E+03
         0.8440000000E+08     0.1000000000E+03
         0.8450000000E+08     0.1000000000E+03
         0.8460000000E+08     0.1000000000E+03
         0.8470000000E+08     0.1000000000E+03
         0.8480000000E+08     0.1000000000E+03
         0.8490000000E+08     0.1000000000E+03
         0.8490000000E+08     0.1000000000E+03
         0.8500000000E+08     0.1000000000E+03
         0.8510000000E+08     0.1000000000E+03
         0.8520000000E+08     0.1000000000E+03
         0.8530000000E+08     0.1000000000E+03
         0.8540000000E+08     0.1000000000E+03
         0.8550000000E+08     0.1000000000E+03
         0.8560000000E+08     0.1000000000E+03
         0.8570000000E+08     0.1000000000E+03
         0.8580000000E+08     0.1000000000E+03
         0.8590000000E+08     0.1000000000E+03
         0.8590000000E+08     0.1000000000E+03
         0.8600000000E+08     0.1000000000E+03
         0.8610000000E+08     0.1000000000E+03
         0.8620000000E+08     0.1000000000E+03
         0.8630000000E+08     0.1000000000E+03
         0.8640000000E+08     0.1000000000E+03
         0.8650000000E+08     0.1000000000E+03
         0.8650000000E+08     0.1000000000E+03
         0.8660000000E+08     0.1000000000E+03
         0.8670000000E+08     0.1000000000E+03
         0.8680000000E+08     0.1000000000E+03
         0.8690000000E+08     0.1000000000E+03
         0.8700000000E+08     0.1000000000E+03
         0.8710000000E+08     0.1000000000E+03
         0.8710000000E+08     0.1000000000E+03
         0.8720000000E+08     0.1000000000E+03
         0.8730000000E+08     0.1000000000E+03
         0.8740000000E+08     0.1000000000E+03
         0.8750000000E+08     0.1000000000E+03
         0.8760000000E+08     0.1000000000E+03
         0.8770000000E+08     0.1000000000E+03
         0.8780000000E+08     0.1000000000E+03
         0.8790000000E+08     0.1000000000E+03
         0.8800000000E+08     0.1000000000E+03
         0.8810000000E+08     0.1000000000E+03
         0.8810000000E+08     0.1000000000E+03
         0.8820000000E+08     0.1000000000E+03
         0.8830000000E+08     0.1000000000E+03
         0.8840000000E+08     0.1000000000E+03
         0.8850000000E+08     0.1000000000E+03
         0.8860000000E+08     0.1000000000E+03
         0.8870000000E+08     0.1000000000E+03
         0.8870000000E+08     0.1000000000E+03
         0.8880000000E+08     0.1000000000E+03
         0.8890000000E+08     0.1000000000E+03
         0.8900000000E+08     0.1000000000E+03
         0.8910000000E+08     0.1000000000E+03
         0.8920000000E+08     0.1000000000E+03
         0.8930000000E+08     0.1000000000E+03
         0.8930000000E+08     0.1000000000E+03
         0.8940000000E+08     0.1000000000E+03
         0.8950000000E+08     0.1000000000E+03
         0.8960000000E+08     0.1000000000E+03
         0.8970000000E+08     0.1000000000E+03
         0.8980000000E+08     0.1000000000E+03
         0.8990000000E+08     0.1000000000E+03
         0.9000000000E+08     0.1000000000E+03
         0.9010000000E+08     0.1000000000E+03
         0.9020000000E+08     0.1000000000E+03
         0.9030000000E+08     0.1000000000E+03
         0.9030000000E+08     0.1000000000E+03
         0.9040000000E+08     0.1000000000E+03
         0.9050000000E+08     0.1000000000E+03
         0.9060000000E+08     0.1000000000E+03
         0.9070000000E+08     0.1000000000E+03
         0.9080000000E+08     0.1000000000E+03
         0.9090000000E+08     0.1000000000E+03
         0.9090000000E+08     0.1000000000E+03
         0.9100000000E+08     0.1000000000E+03
         0.9110000000E+08     0.1000000000E+03
         0.9120000000E+08     0.1000000000E+03
         0.9130000000E+08     0.1000000000E+03
         0.9140000000E+08     0.1000000000E+03
         0.9150000000E+08     0.1000000000E+03
         0.9150000000E+08     0.1000000000E+03
         0.9160000000E+08     0.1000000000E+03
         0.9170000000E+08     0.1000000000E+03
         0.9180000000E+08     0.1000000000E+03
         0.9190000000E+08     0.1000000000E+03
         0.9200000000E+08     0.1000000000E+03
         0.9210000000E+08     0.1000000000E+03
         0.9220000000E+08     0.1000000000E+03
         0.9230000000E+08     0.1000000000E+03
         0.9240000000E+08     0.1000000000E+03
         0.9250000000E+08     0.1000000000E+03
         0.9250000000E+08     0.1000000000E+03
         0.9260000000E+08     0.1000000000E+03
         0.9270000000E+08     0.1000000000E+03
         0.9280000000E+08     0.1000000000E+03
         0.9290000000E+08     0.1000000000E+03
         0.9300000000E+08     0.1000000000E+03
         0.9310000000E+08     0.1000000000E+03
         0.9310000000E+08     0.1000000000E+03
         0.9320000000E+08     0.1000000000E+03
         0.9330000000E+08     0.1000000000E+03
         0.9340000000E+08     0.1000000000E+03
         0.9350000000E+08     0.1000000000E+03
         0.9360000000E+08     0.1000000000E+03
         0.9370000000E+08     0.1000000000E+03
         0.9370000000E+08     0.1000000000E+03
         0.9380000000E+08     0.1000000000E+03
         0.9390000000E+08     0.1000000000E+03
         0.9400000000E+08     0.1000000000E+03
         0.9410000000E+08     0.1000000000E+03
         0.9420000000E+08     0.1000000000E+03
         0.9430000000E+08     0.1000000000E+03
         0.9440000000E+08     0.1000000000E+03
         0.9450000000E+08     0.1000000000E+03
         0.9460000000E+08     0.1000000000E+03
         0.9470000000E+08     0.1000000000E+03
         0.9470000000E+08     0.1000000000E+03
         0.9480000000E+08     0.1000000000E+03
         0.9490000000E+08     0.1000000000E+03
         0.9500000000E+08     0.1000000000E+03
         0.9510000000E+08     0.1000000000E+03
         0.9520000000E+08     0.1000000000E+03
         0.9530000000E+08     0.1000000000E+03
         0.9530000000E+08     0.1000000000E+03
         0.9540000000E+08     0.1000000000E+03
         0.9550000000E+08     0.1000000000E+03
         0.9560000000E+08     0.1000000000E+03
         0.9570000000E+08     0.1000000000E+03
         0.9580000000E+08     0.1000000000E+03
         0.9590000000E+08     0.1000000000E+03
         0.9590000000E+08     0.1000000000E+03
         0.9600000000E+08     0.1000000000E+03
         0.9610000000E+08     0.1000000000E+03
         0.9620000000E+08     0.1000000000E+03
         0.9630000000E+08     0.1000000000E+03
         0.9640000000E+08     0.1000000000E+03
         0.9650000000E+08     0.1000000000E+03
         0.9660000000E+08     0.1000000000E+03
         0.9670000000E+08     0.1000000000E+03
         0.9680000000E+08     0.1000000000E+03
         0.9690000000E+08     0.1000000000E+03
         0.9690000000E+08     0.1000000000E+03
         0.9700000000E+08     0.1000000000E+03
         0.9710000000E+08     0.1000000000E+03
         0.9720000000E+08     0.1000000000E+03
         0.9730000000E+08     0.1000000000E+03
         0.9740000000E+08     0.1000000000E+03
         0.9750000000E+08     0.1000000000E+03
         0.9750000000E+08     0.1000000000E+03
         0.9760000000E+08     0.1000000000E+03
         0.9770000000E+08     0.1000000000E+03
         0.9780000000E+08     0.1000000000E+03
         0.9790000000E+08     0.1000000000E+03
         0.9800000000E+08     0.1000000000E+03
         0.9810000000E+08     0.1000000000E+03
         0.9810000000E+08     0.1000000000E+03
         0.9820000000E+08     0.1000000000E+03
         0.9830000000E+08     0.1000000000E+03
         0.9840000000E+08     0.1000000000E+03
         0.9850000000E+08     0.1000000000E+03
         0.9860000000E+08     0.1000000000E+03
         0.9870000000E+08     0.1000000000E+03
         0.9880000000E+08     0.1000000000E+03
         0.9890000000E+08     0.1000000000E+03
         0.9900000000E+08     0.1000000000E+03
         0.9910000000E+08     0.1000000000E+03
         0.9910000000E+08     0.1000000000E+03
         0.9920000000E+08     0.1000000000E+03
         0.9930000000E+08     0.1000000000E+03
         0.9940000000E+08     0.1000000000E+03
         0.9950000000E+08     0.1000000000E+03
         0.9960000000E+08     0.1000000000E+03
         0.9970000000E+08     0.1000000000E+03
         0.9970000000E+08     0.1000000000E+03
         0.9980000000E+08     0.1000000000E+03
         0.9990000000E+08     0.1000000000E+03
         0.1000000000E+09     0.1000000000E+03
         0.1001000000E+09     0.1000000000E+03
         0.1002000000E+09     0.1000000000E+03
         0.1003000000E+09     0.1000000000E+03
         0.1003000000E+09     0.1000000000E+03
         0.1004000000E+09     0.1000000000E+03
         0.1005000000E+09     0.1000000000E+03
         0.1006000000E+09     0.1000000000E+03
         0.1007000000E+09     0.1000000000E+03
         0.1008000000E+09     0.1000000000E+03
         0.1009000000E+09     0.1000000000E+03
         0.1010000000E+09     0.1000000000E+03
         0.1011000000E+09     0.1000000000E+03
         0.1012000000E+09     0.1000000000E+03
         0.1013000000E+09     0.1000000000E+03
         0.1013000000E+09     0.1000000000E+03
         0.1014000000E+09     0.1000000000E+03
         0.1015000000E+09     0.1000000000E+03
         0.1016000000E+09     0.1000000000E+03
         0.1017000000E+09     0.1000000000E+03
         0.1018000000E+09     0.1000000000E+03
         0.1019000000E+09     0.1000000000E+03
         0.1019000000E+09     0.1000000000E+03
         0.1020000000E+09     0.1000000000E+03
         0.1021000000E+09     0.1000000000E+03
         0.1022000000E+09     0.1000000000E+03
         0.1023000000E+09     0.1000000000E+03
         0.1024000000E+09     0.1000000000E+03
         0.1025000000E+09     0.1000000000E+03
         0.1025000000E+09     0.1000000000E+03
         0.1026000000E+09     0.1000000000E+03
         0.1027000000E+09     0.1000000000E+03
         0.1028000000E+09     0.1000000000E+03
         0.1029000000E+09     0.1000000000E+03
         0.1030000000E+09     0.1000000000E+03
         0.1031000000E+09     0.1000000000E+03
         0.1032000000E+09     0.1000000000E+03
         0.1033000000E+09     0.1000000000E+03
         0.1034000000E+09     0.1000000000E+03
         0.1035000000E+09     0.1000000000E+03
         0.1035000000E+09     0.1000000000E+03
         0.1036000000E+09     0.1000000000E+03
         0.1037000000E+09     0.1000000000E+03
         0.1038000000E+09     0.1000000000E+03
         0.1039000000E+09     0.1000000000E+03
         0.1040000000E+09     0.1000000000E+03
         0.1041000000E+09     0.1000000000E+03
         0.1041000000E+09     0.1000000000E+03
         0.1042000000E+09     0.1000000000E+03
         0.1043000000E+09     0.1000000000E+03
         0.1044000000E+09     0.1000000000E+03
         0.1045000000E+09     0.1000000000E+03
         0.1046000000E+09     0.1000000000E+03
         0.1047000000E+09     0.1000000000E+03
         0.1047000000E+09     0.1000000000E+03
         0.1048000000E+09     0.1000000000E+03
         0.1049000000E+09     0.1000000000E+03
         0.1050000000E+09     0.1000000000E+03
         0.1051000000E+09     0.1000000000E+03
         0.1052000000E+09     0.1000000000E+03
         0.1053000000E+09     0.1000000000E+03
         0.1054000000E+09     0.1000000000E+03
         0.1055000000E+09     0.1000000000E+03
         0.1056000000E+09     0.1000000000E+03
         0.1057000000E+09     0.1000000000E+03
         0.1057000000E+09     0.1000000000E+03
         0.1058000000E+09     0.1000000000E+03
         0.1059000000E+09     0.1000000000E+03
         0.1060000000E+09     0.1000000000E+03
         0.1061000000E+09     0.1000000000E+03
         0.1062000000E+09     0.1000000000E+03
         0.1063000000E+09     0.1000000000E+03
         0.1063000000E+09     0.1000000000E+03
         0.1064000000E+09     0.1000000000E+03
         0.1065000000E+09     0.1000000000E+03
         0.1066000000E+09     0.1000000000E+03
         0.1067000000E+09     0.1000000000E+03
         0.1068000000E+09     0.1000000000E+03
         0.1069000000E+09     0.1000000000E+03
         0.1069000000E+09     0.1000000000E+03
         0.1070000000E+09     0.1000000000E+03
         0.1071000000E+09     0.1000000000E+03
         0.1072000000E+09     0.1000000000E+03
         0.1073000000E+09     0.1000000000E+03
         0.1074000000E+09     0.1000000000E+03
         0.1075000000E+09     0.1000000000E+03
         0.1076000000E+09     0.1000000000E+03
         0.1077000000E+09     0.1000000000E+03
         0.1078000000E+09     0.1000000000E+03
         0.1079000000E+09     0.1000000000E+03
         0.1079000000E+09     0.1000000000E+03
         0.1080000000E+09     0.1000000000E+03
         0.1081000000E+09     0.1000000000E+03
         0.1082000000E+09     0.1000000000E+03
         0.1083000000E+09     0.1000000000E+03
         0.1084000000E+09     0.1000000000E+03
         0.1085000000E+09     0.1000000000E+03
         0.1085000000E+09     0.1000000000E+03
         0.1086000000E+09     0.1000000000E+03
         0.1087000000E+09     0.1000000000E+03
         0.1088000000E+09     0.1000000000E+03
         0.1089000000E+09     0.1000000000E+03
         0.1090000000E+09     0.1000000000E+03
         0.1091000000E+09     0.1000000000E+03
         0.1091000000E+09     0.1000000000E+03
         0.1092000000E+09     0.1000000000E+03
         0.1093000000E+09     0.1000000000E+03
         0.1094000000E+09     0.1000000000E+03
         0.1095000000E+09     0.1000000000E+03
         0.1096000000E+09     0.1000000000E+03
         0.1097000000E+09     0.1000000000E+03
         0.1098000000E+09     0.1000000000E+03
         0.1099000000E+09     0.1000000000E+03
         0.1100000000E+09     0.1000000000E+03
         0.1101000000E+09     0.1000000000E+03
         0.1101000000E+09     0.1000000000E+03
         0.1102000000E+09     0.1000000000E+03
         0.1103000000E+09     0.1000000000E+03
         0.1104000000E+09     0.1000000000E+03
         0.1105000000E+09     0.1000000000E+03
         0.1106000000E+09     0.1000000000E+03
         0.1107000000E+09     0.1000000000E+03
         0.1107000000E+09     0.1000000000E+03
         0.1108000000E+09     0.1000000000E+03
         0.1109000000E+09     0.1000000000E+03
         0.1110000000E+09     0.1000000000E+03
         0.1111000000E+09     0.1000000000E+03
         0.1112000000E+09     0.1000000000E+03
         0.1113000000E+09     0.1000000000E+03
         0.1113000000E+09     0.1000000000E+03
         0.1114000000E+09     0.1000000000E+03
         0.1115000000E+09     0.1000000000E+03
         0.1116000000E+09     0.1000000000E+03
         0.1117000000E+09     0.1000000000E+03
         0.1118000000E+09     0.1000000000E+03
         0.1119000000E+09     0.1000000000E+03
         0.1120000000E+09     0.1000000000E+03
         0.1121000000E+09     0.1000000000E+03
         0.1122000000E+09     0.1000000000E+03
         0.1123000000E+09     0.1000000000E+03
         0.1123000000E+09     0.1000000000E+03
         0.1124000000E+09     0.1000000000E+03
         0.1125000000E+09     0.1000000000E+03
         0.1126000000E+09     0.1000000000E+03
         0.1127000000E+09     0.1000000000E+03
         0.1128000000E+09     0.1000000000E+03
         0.1129000000E+09     0.1000000000E+03
         0.1129000000E+09     0.1000000000E+03
         0.1130000000E+09     0.1000000000E+03
         0.1131000000E+09     0.1000000000E+03
         0.1132000000E+09     0.1000000000E+03
         0.1133000000E+09     0.1000000000E+03
         0.1134000000E+09     0.1000000000E+03
         0.1135000000E+09     0.1000000000E+03
         0.1135000000E+09     0.1000000000E+03
         0.1136000000E+09     0.1000000000E+03
         0.1137000000E+09     0.1000000000E+03
         0.1138000000E+09     0.1000000000E+03
         0.1139000000E+09     0.1000000000E+03
         0.1140000000E+09     0.1000000000E+03
         0.1141000000E+09     0.1000000000E+03
         0.1142000000E+09     0.1000000000E+03
         0.1143000000E+09     0.1000000000E+03
         0.1144000000E+09     0.1000000000E+03
         0.1145000000E+09     0.1000000000E+03
         0.1145000000E+09     0.1000000000E+03
         0.1146000000E+09     0.1000000000E+03
         0.1147000000E+09     0.1000000000E+03
         0.1148000000E+09     0.1000000000E+03
         0.1149000000E+09     0.1000000000E+03
         0.1150000000E+09     0.1000000000E+03
         0.1151000000E+09     0.1000000000E+03
         0.1151000000E+09     0.1000000000E+03
         0.1152000000E+09     0.1000000000E+03
         0.1153000000E+09     0.1000000000E+03
         0.1154000000E+09     0.1000000000E+03
         0.1155000000E+09     0.1000000000E+03
         0.1156000000E+09     0.1000000000E+03
         0.1157000000E+09     0.1000000000E+03
         0.1157000000E+09     0.1000000000E+03
         0.1158000000E+09     0.1000000000E+03
         0.1159000000E+09     0.1000000000E+03
         0.1160000000E+09     0.1000000000E+03
         0.1161000000E+09     0.1000000000E+03
         0.1162000000E+09     0.1000000000E+03
         0.1163000000E+09     0.1000000000E+03
         0.1164000000E+09     0.1000000000E+03
         0.1165000000E+09     0.1000000000E+03
         0.1166000000E+09     0.1000000000E+03
         0.1167000000E+09     0.1000000000E+03
         0.1167000000E+09     0.1000000000E+03
         0.1168000000E+09     0.1000000000E+03
         0.1169000000E+09     0.1000000000E+03
         0.1170000000E+09     0.1000000000E+03
         0.1171000000E+09     0.1000000000E+03
         0.1172000000E+09     0.1000000000E+03
         0.1173000000E+09     0.1000000000E+03
         0.1173000000E+09     0.1000000000E+03
         0.1174000000E+09     0.1000000000E+03
         0.1175000000E+09     0.1000000000E+03
         0.1176000000E+09     0.1000000000E+03
         0.1177000000E+09     0.1000000000E+03
         0.1178000000E+09     0.1000000000E+03
         0.1179000000E+09     0.1000000000E+03
         0.1179000000E+09     0.1000000000E+03
         0.1180000000E+09     0.1000000000E+03
         0.1181000000E+09     0.1000000000E+03
         0.1182000000E+09     0.1000000000E+03
         0.1183000000E+09     0.1000000000E+03
         0.1184000000E+09     0.1000000000E+03
         0.1185000000E+09     0.1000000000E+03
         0.1186000000E+09     0.1000000000E+03
         0.1187000000E+09     0.1000000000E+03
         0.1188000000E+09     0.1000000000E+03
         0.1189000000E+09     0.1000000000E+03
         0.1189000000E+09     0.1000000000E+03
         0.1190000000E+09     0.1000000000E+03
         0.1191000000E+09     0.1000000000E+03
         0.1192000000E+09     0.1000000000E+03
         0.1193000000E+09     0.1000000000E+03
         0.1194000000E+09     0.1000000000E+03
         0.1195000000E+09     0.1000000000E+03
         0.1195000000E+09     0.1000000000E+03
         0.1196000000E+09     0.1000000000E+03
         0.1197000000E+09     0.1000000000E+03
         0.1198000000E+09     0.1000000000E+03
         0.1199000000E+09     0.1000000000E+03
         0.1200000000E+09     0.1000000000E+03
         0.1201000000E+09     0.1000000000E+03
         0.1201000000E+09     0.1000000000E+03
         0.1202000000E+09     0.1000000000E+03
         0.1203000000E+09     0.1000000000E+03
         0.1204000000E+09     0.1000000000E+03
         0.1205000000E+09     0.1000000000E+03
         0.1206000000E+09     0.1000000000E+03
         0.1207000000E+09     0.1000000000E+03
         0.1208000000E+09     0.1000000000E+03
         0.1209000000E+09     0.1000000000E+03
         0.1210000000E+09     0.1000000000E+03
         0.1211000000E+09     0.1000000000E+03
         0.1211000000E+09     0.1000000000E+03
         0.1212000000E+09     0.1000000000E+03
         0.1213000000E+09     0.1000000000E+03
         0.1214000000E+09     0.1000000000E+03
         0.1215000000E+09     0.1000000000E+03
         0.1216000000E+09     0.1000000000E+03
         0.1217000000E+09     0.1000000000E+03
         0.1217000000E+09     0.1000000000E+03
         0.1218000000E+09     0.1000000000E+03
         0.1219000000E+09     0.1000000000E+03
         0.1220000000E+09     0.1000000000E+03
         0.1221000000E+09     0.1000000000E+03
         0.1222000000E+09     0.1000000000E+03
         0.1223000000E+09     0.1000000000E+03
         0.1223000000E+09     0.1000000000E+03
         0.1224000000E+09     0.1000000000E+03
         0.1225000000E+09     0.1000000000E+03
         0.1226000000E+09     0.1000000000E+03
         0.1227000000E+09     0.1000000000E+03
         0.1228000000E+09     0.1000000000E+03
         0.1229000000E+09     0.1000000000E+03
         0.1230000000E+09     0.1000000000E+03
         0.1231000000E+09     0.1000000000E+03
         0.1232000000E+09     0.1000000000E+03
         0.1233000000E+09     0.1000000000E+03
         0.1233000000E+09     0.1000000000E+03
         0.1234000000E+09     0.1000000000E+03
         0.1235000000E+09     0.1000000000E+03
         0.1236000000E+09     0.1000000000E+03
         0.1237000000E+09     0.1000000000E+03
         0.1238000000E+09     0.1000000000E+03
         0.1239000000E+09     0.1000000000E+03
         0.1239000000E+09     0.1000000000E+03
         0.1240000000E+09     0.1000000000E+03
         0.1241000000E+09     0.1000000000E+03
         0.1242000000E+09     0.1000000000E+03
         0.1243000000E+09     0.1000000000E+03
         0.1244000000E+09     0.1000000000E+03
         0.1245000000E+09     0.1000000000E+03
         0.1245000000E+09     0.1000000000E+03
         0.1246000000E+09     0.1000000000E+03
         0.1247000000E+09     0.1000000000E+03
         0.1248000000E+09     0.1000000000E+03
         0.1249000000E+09     0.1000000000E+03
         0.1250000000E+09     0.1000000000E+03
         0.1251000000E+09     0.1000000000E+03
         0.1252000000E+09     0.1000000000E+03
         0.1253000000E+09     0.1000000000E+03
         0.1254000000E+09     0.1000000000E+03
         0.1255000000E+09     0.1000000000E+03
         0.1255000000E+09     0.1000000000E+03
         0.1256000000E+09     0.1000000000E+03
         0.1257000000E+09     0.1000000000E+03
         0.1258000000E+09     0.1000000000E+03
         0.1259000000E+09     0.1000000000E+03
         0.1260000000E+09     0.1000000000E+03



            AREAL INFILTRATION RATE
 READING ON UNIT   19 WITH FORMAT: (10F4.0)            

            1           2           3           4           5           6           7           8           9          10
 ........................................................................................................................
   1   1.0000E-10  2.0000E-10   0.000       0.000       0.000       0.000       0.000       0.000       0.000       0.000    
   2   2.0000E-10  1.0000E-10  2.0000E-10   0.000       0.000      8.0000E-10  8.0000E-10  5.0000E-10   0.000       0.000    
   3    0.000      5.0000E-10  1.0000E-10  1.0000E-10  8.0000E-10  8.0000E-10  5.0000E-10  5.0000E-10   0.000       0.000    
   4   8.0000E-10  5.0000E-10  1.0000E-10  1.0000E-10  1.0000E-10  1.0000E-10  1.0000E-10  1.0000E-10  2.0000E-10   0.000    
   5   8.0000E-10  5.0000E-10  1.0000E-10  1.0000E-10  1.0000E-10  1.0000E-10  1.0000E-10  1.0000E-10  1.0000E-10  1.0000E-10
   6   8.0000E-10  5.0000E-10  5.0000E-10  2.0000E-10  2.0000E-10  1.0000E-10  1.0000E-10  1.0000E-10  1.0000E-10  5.0000E-10
   7   8.0000E-10  5.0000E-10  5.0000E-10  2.0000E-10  2.0000E-10  1.0000E-10  1.0000E-10  2.0000E-10  2.0000E-10   0.000    
   8    0.000      5.0000E-10  5.0000E-10  2.0000E-10  2.0000E-10  1.0000E-10  1.0000E-10  2.0000E-10  5.0000E-10   0.000    
   9    0.000      5.0000E-10  5.0000E-10  2.0000E-10  2.0000E-10  1.0000E-10  1.0000E-10  2.0000E-10  5.0000E-10   0.000    
  10    0.000      5.0000E-10  5.0000E-10  2.0000E-10  2.0000E-10  1.0000E-10  1.0000E-10  2.0000E-10  5.0000E-10  8.0000E-10
  11    0.000      1.0000E-10  1.0000E-10  1.0000E-10  1.0000E-10  1.0000E-10  1.0000E-10  2.0000E-10  5.0000E-10   0.000    
  12   1.0000E-10  1.0000E-10  1.0000E-10  1.0000E-10  1.0000E-10  1.0000E-10  1.0000E-10  1.0000E-10  2.0000E-10   0.000    
  13   1.0000E-10  1.0000E-10  2.0000E-10  2.0000E-10  2.0000E-10  2.0000E-10  2.0000E-10  1.0000E-10  1.0000E-10   0.000    
  14    0.000      2.0000E-10  5.0000E-10  5.0000E-10  5.0000E-10  5.0000E-10  5.0000E-10  2.0000E-10  1.0000E-10   0.000    
  15    0.000       0.000      8.0000E-10  8.0000E-10  8.0000E-10  8.0000E-10   0.000       0.000       0.000       0.000    

                  ET RATE =  1.000000E-08

      ET EXTINCTION DEPTH =  0.500000    

 EXTINCTION WATER CONTENT =  0.200000    

EXTINCTION WATER CONTENT FOR CELL AT ROW     1, COLUMN     1 IS LESS THAN RESIDUAL WATER CONTENT-- SETTING EXTINCTION WATER CONTENT EQUAL TO RESIDUAL WATER CONTENT

EXTINCTION WATER CONTENT FOR CELL AT ROW     1, COLUMN     2 IS LESS THAN RESIDUAL WATER CONTENT-- SETTING EXTINCTION WATER CONTENT EQUAL TO RESIDUAL WATER CONTENT

EXTINCTION WATER CONTENT FOR CELL AT ROW     2, COLUMN     1 IS LESS THAN RESIDUAL WATER CONTENT-- SETTING EXTINCTION WATER CONTENT EQUAL TO RESIDUAL WATER CONTENT

EXTINCTION WATER CONTENT FOR CELL AT ROW     2, COLUMN     2 IS LESS THAN RESIDUAL WATER CONTENT-- SETTING EXTINCTION WATER CONTENT EQUAL TO RESIDUAL WATER CONTENT

EXTINCTION WATER CONTENT FOR CELL AT ROW     2, COLUMN     3 IS LESS THAN RESIDUAL WATER CONTENT-- SETTING EXTINCTION WATER CONTENT EQUAL TO RESIDUAL WATER CONTENT

EXTINCTION WATER CONTENT FOR CELL AT ROW     2, COLUMN     6 IS LESS THAN RESIDUAL WATER CONTENT-- SETTING EXTINCTION WATER CONTENT EQUAL TO RESIDUAL WATER CONTENT

EXTINCTION WATER CONTENT FOR CELL AT ROW     2, COLUMN     7 IS LESS THAN RESIDUAL WATER CONTENT-- SETTING EXTINCTION WATER CONTENT EQUAL TO RESIDUAL WATER CONTENT

EXTINCTION WATER CONTENT FOR CELL AT ROW     2, COLUMN     8 IS LESS THAN RESIDUAL WATER CONTENT-- SETTING EXTINCTION WATER CONTENT EQUAL TO RESIDUAL WATER CONTENT

EXTINCTION WATER CONTENT FOR CELL AT ROW     3, COLUMN     2 IS LESS THAN RESIDUAL WATER CONTENT-- SETTING EXTINCTION WATER CONTENT EQUAL TO RESIDUAL WATER CONTENT

EXTINCTION WATER CONTENT FOR CELL AT ROW     3, COLUMN     3 IS LESS THAN RESIDUAL WATER CONTENT-- SETTING EXTINCTION WATER CONTENT EQUAL TO RESIDUAL WATER CONTENT

EXTINCTION WATER CONTENT FOR CELL AT ROW     3, COLUMN     4 IS LESS THAN RESIDUAL WATER CONTENT-- SETTING EXTINCTION WATER CONTENT EQUAL TO RESIDUAL WATER CONTENT

EXTINCTION WATER CONTENT FOR CELL AT ROW     3, COLUMN     5 IS LESS THAN RESIDUAL WATER CONTENT-- SETTING EXTINCTION WATER CONTENT EQUAL TO RESIDUAL WATER CONTENT

EXTINCTION WATER CONTENT FOR CELL AT ROW     3, COLUMN     6 IS LESS THAN RESIDUAL WATER CONTENT-- SETTING EXTINCTION WATER CONTENT EQUAL TO RESIDUAL WATER CONTENT

EXTINCTION WATER CONTENT FOR CELL AT ROW     3, COLUMN     7 IS LESS THAN RESIDUAL WATER CONTENT-- SETTING EXTINCTION WATER CONTENT EQUAL TO RESIDUAL WATER CONTENT

EXTINCTION WATER CONTENT FOR CELL AT ROW     3, COLUMN     8 IS LESS THAN RESIDUAL WATER CONTENT-- SETTING EXTINCTION WATER CONTENT EQUAL TO RESIDUAL WATER CONTENT

EXTINCTION WATER CONTENT FOR CELL AT ROW     4, COLUMN     1 IS LESS THAN RESIDUAL WATER CONTENT-- SETTING EXTINCTION WATER CONTENT EQUAL TO RESIDUAL WATER CONTENT

EXTINCTION WATER CONTENT FOR CELL AT ROW     4, COLUMN     2 IS LESS THAN RESIDUAL WATER CONTENT-- SETTING EXTINCTION WATER CONTENT EQUAL TO RESIDUAL WATER CONTENT

EXTINCTION WATER CONTENT FOR CELL AT ROW     4, COLUMN     3 IS LESS THAN RESIDUAL WATER CONTENT-- SETTING EXTINCTION WATER CONTENT EQUAL TO RESIDUAL WATER CONTENT

EXTINCTION WATER CONTENT FOR CELL AT ROW     4, COLUMN     4 IS LESS THAN RESIDUAL WATER CONTENT-- SETTING EXTINCTION WATER CONTENT EQUAL TO RESIDUAL WATER CONTENT

EXTINCTION WATER CONTENT FOR CELL AT ROW     4, COLUMN     5 IS LESS THAN RESIDUAL WATER CONTENT-- SETTING EXTINCTION WATER CONTENT EQUAL TO RESIDUAL WATER CONTENT

EXTINCTION WATER CONTENT FOR CELL AT ROW     4, COLUMN     6 IS LESS THAN RESIDUAL WATER CONTENT-- SETTING EXTINCTION WATER CONTENT EQUAL TO RESIDUAL WATER CONTENT

EXTINCTION WATER CONTENT FOR CELL AT ROW     4, COLUMN     7 IS LESS THAN RESIDUAL WATER CONTENT-- SETTING EXTINCTION WATER CONTENT EQUAL TO RESIDUAL WATER CONTENT

EXTINCTION WATER CONTENT FOR CELL AT ROW     4, COLUMN     8 IS LESS THAN RESIDUAL WATER CONTENT-- SETTING EXTINCTION WATER CONTENT EQUAL TO RESIDUAL WATER CONTENT

EXTINCTION WATER CONTENT FOR CELL AT ROW     4, COLUMN     9 IS LESS THAN RESIDUAL WATER CONTENT-- SETTING EXTINCTION WATER CONTENT EQUAL TO RESIDUAL WATER CONTENT

EXTINCTION WATER CONTENT FOR CELL AT ROW     5, COLUMN     1 IS LESS THAN RESIDUAL WATER CONTENT-- SETTING EXTINCTION WATER CONTENT EQUAL TO RESIDUAL WATER CONTENT

EXTINCTION WATER CONTENT FOR CELL AT ROW     5, COLUMN     2 IS LESS THAN RESIDUAL WATER CONTENT-- SETTING EXTINCTION WATER CONTENT EQUAL TO RESIDUAL WATER CONTENT

EXTINCTION WATER CONTENT FOR CELL AT ROW     5, COLUMN     3 IS LESS THAN RESIDUAL WATER CONTENT-- SETTING EXTINCTION WATER CONTENT EQUAL TO RESIDUAL WATER CONTENT

EXTINCTION WATER CONTENT FOR CELL AT ROW     5, COLUMN     4 IS LESS THAN RESIDUAL WATER CONTENT-- SETTING EXTINCTION WATER CONTENT EQUAL TO RESIDUAL WATER CONTENT

EXTINCTION WATER CONTENT FOR CELL AT ROW     5, COLUMN     5 IS LESS THAN RESIDUAL WATER CONTENT-- SETTING EXTINCTION WATER CONTENT EQUAL TO RESIDUAL WATER CONTENT

EXTINCTION WATER CONTENT FOR CELL AT ROW     5, COLUMN     6 IS LESS THAN RESIDUAL WATER CONTENT-- SETTING EXTINCTION WATER CONTENT EQUAL TO RESIDUAL WATER CONTENT

EXTINCTION WATER CONTENT FOR CELL AT ROW     5, COLUMN     7 IS LESS THAN RESIDUAL WATER CONTENT-- SETTING EXTINCTION WATER CONTENT EQUAL TO RESIDUAL WATER CONTENT

EXTINCTION WATER CONTENT FOR CELL AT ROW     5, COLUMN     8 IS LESS THAN RESIDUAL WATER CONTENT-- SETTING EXTINCTION WATER CONTENT EQUAL TO RESIDUAL WATER CONTENT

EXTINCTION WATER CONTENT FOR CELL AT ROW     5, COLUMN     9 IS LESS THAN RESIDUAL WATER CONTENT-- SETTING EXTINCTION WATER CONTENT EQUAL TO RESIDUAL WATER CONTENT

EXTINCTION WATER CONTENT FOR CELL AT ROW     5, COLUMN    10 IS LESS THAN RESIDUAL WATER CONTENT-- SETTING EXTINCTION WATER CONTENT EQUAL TO RESIDUAL WATER CONTENT

EXTINCTION WATER CONTENT FOR CELL AT ROW     6, COLUMN     1 IS LESS THAN RESIDUAL WATER CONTENT-- SETTING EXTINCTION WATER CONTENT EQUAL TO RESIDUAL WATER CONTENT

EXTINCTION WATER CONTENT FOR CELL AT ROW     6, COLUMN     2 IS LESS THAN RESIDUAL WATER CONTENT-- SETTING EXTINCTION WATER CONTENT EQUAL TO RESIDUAL WATER CONTENT

EXTINCTION WATER CONTENT FOR CELL AT ROW     6, COLUMN     3 IS LESS THAN RESIDUAL WATER CONTENT-- SETTING EXTINCTION WATER CONTENT EQUAL TO RESIDUAL WATER CONTENT

EXTINCTION WATER CONTENT FOR CELL AT ROW     6, COLUMN     4 IS LESS THAN RESIDUAL WATER CONTENT-- SETTING EXTINCTION WATER CONTENT EQUAL TO RESIDUAL WATER CONTENT

EXTINCTION WATER CONTENT FOR CELL AT ROW     6, COLUMN     5 IS LESS THAN RESIDUAL WATER CONTENT-- SETTING EXTINCTION WATER CONTENT EQUAL TO RESIDUAL WATER CONTENT

EXTINCTION WATER CONTENT FOR CELL AT ROW     6, COLUMN     6 IS LESS THAN RESIDUAL WATER CONTENT-- SETTING EXTINCTION WATER CONTENT EQUAL TO RESIDUAL WATER CONTENT

EXTINCTION WATER CONTENT FOR CELL AT ROW     6, COLUMN     7 IS LESS THAN RESIDUAL WATER CONTENT-- SETTING EXTINCTION WATER CONTENT EQUAL TO RESIDUAL WATER CONTENT

EXTINCTION WATER CONTENT FOR CELL AT ROW     6, COLUMN     8 IS LESS THAN RESIDUAL WATER CONTENT-- SETTING EXTINCTION WATER CONTENT EQUAL TO RESIDUAL WATER CONTENT

EXTINCTION WATER CONTENT FOR CELL AT ROW     6, COLUMN     9 IS LESS THAN RESIDUAL WATER CONTENT-- SETTING EXTINCTION WATER CONTENT EQUAL TO RESIDUAL WATER CONTENT

EXTINCTION WATER CONTENT FOR CELL AT ROW     6, COLUMN    10 IS LESS THAN RESIDUAL WATER CONTENT-- SETTING EXTINCTION WATER CONTENT EQUAL TO RESIDUAL WATER CONTENT

EXTINCTION WATER CONTENT FOR CELL AT ROW     7, COLUMN     1 IS LESS THAN RESIDUAL WATER CONTENT-- SETTING EXTINCTION WATER CONTENT EQUAL TO RESIDUAL WATER CONTENT

EXTINCTION WATER CONTENT FOR CELL AT ROW     7, COLUMN     2 IS LESS THAN RESIDUAL WATER CONTENT-- SETTING EXTINCTION WATER CONTENT EQUAL TO RESIDUAL WATER CONTENT

EXTINCTION WATER CONTENT FOR CELL AT ROW     7, COLUMN     3 IS LESS THAN RESIDUAL WATER CONTENT-- SETTING EXTINCTION WATER CONTENT EQUAL TO RESIDUAL WATER CONTENT

EXTINCTION WATER CONTENT FOR CELL AT ROW     7, COLUMN     4 IS LESS THAN RESIDUAL WATER CONTENT-- SETTING EXTINCTION WATER CONTENT EQUAL TO RESIDUAL WATER CONTENT

EXTINCTION WATER CONTENT FOR CELL AT ROW     7, COLUMN     5 IS LESS THAN RESIDUAL WATER CONTENT-- SETTING EXTINCTION WATER CONTENT EQUAL TO RESIDUAL WATER CONTENT

EXTINCTION WATER CONTENT FOR CELL AT ROW     7, COLUMN     6 IS LESS THAN RESIDUAL WATER CONTENT-- SETTING EXTINCTION WATER CONTENT EQUAL TO RESIDUAL WATER CONTENT

EXTINCTION WATER CONTENT FOR CELL AT ROW     7, COLUMN     7 IS LESS THAN RESIDUAL WATER CONTENT-- SETTING EXTINCTION WATER CONTENT EQUAL TO RESIDUAL WATER CONTENT

EXTINCTION WATER CONTENT FOR CELL AT ROW     7, COLUMN     8 IS LESS THAN RESIDUAL WATER CONTENT-- SETTING EXTINCTION WATER CONTENT EQUAL TO RESIDUAL WATER CONTENT

EXTINCTION WATER CONTENT FOR CELL AT ROW     7, COLUMN     9 IS LESS THAN RESIDUAL WATER CONTENT-- SETTING EXTINCTION WATER CONTENT EQUAL TO RESIDUAL WATER CONTENT

EXTINCTION WATER CONTENT FOR CELL AT ROW     8, COLUMN     2 IS LESS THAN RESIDUAL WATER CONTENT-- SETTING EXTINCTION WATER CONTENT EQUAL TO RESIDUAL WATER CONTENT

EXTINCTION WATER CONTENT FOR CELL AT ROW     8, COLUMN     3 IS LESS THAN RESIDUAL WATER CONTENT-- SETTING EXTINCTION WATER CONTENT EQUAL TO RESIDUAL WATER CONTENT

EXTINCTION WATER CONTENT FOR CELL AT ROW     8, COLUMN     4 IS LESS THAN RESIDUAL WATER CONTENT-- SETTING EXTINCTION WATER CONTENT EQUAL TO RESIDUAL WATER CONTENT

EXTINCTION WATER CONTENT FOR CELL AT ROW     8, COLUMN     5 IS LESS THAN RESIDUAL WATER CONTENT-- SETTING EXTINCTION WATER CONTENT EQUAL TO RESIDUAL WATER CONTENT

EXTINCTION WATER CONTENT FOR CELL AT ROW     8, COLUMN     6 IS LESS THAN RESIDUAL WATER CONTENT-- SETTING EXTINCTION WATER CONTENT EQUAL TO RESIDUAL WATER CONTENT

EXTINCTION WATER CONTENT FOR CELL AT ROW     8, COLUMN     7 IS LESS THAN RESIDUAL WATER CONTENT-- SETTING EXTINCTION WATER CONTENT EQUAL TO RESIDUAL WATER CONTENT

EXTINCTION WATER CONTENT FOR CELL AT ROW     8, COLUMN     8 IS LESS THAN RESIDUAL WATER CONTENT-- SETTING EXTINCTION WATER CONTENT EQUAL TO RESIDUAL WATER CONTENT

EXTINCTION WATER CONTENT FOR CELL AT ROW     8, COLUMN     9 IS LESS THAN RESIDUAL WATER CONTENT-- SETTING EXTINCTION WATER CONTENT EQUAL TO RESIDUAL WATER CONTENT

EXTINCTION WATER CONTENT FOR CELL AT ROW     9, COLUMN     2 IS LESS THAN RESIDUAL WATER CONTENT-- SETTING EXTINCTION WATER CONTENT EQUAL TO RESIDUAL WATER CONTENT

EXTINCTION WATER CONTENT FOR CELL AT ROW     9, COLUMN     3 IS LESS THAN RESIDUAL WATER CONTENT-- SETTING EXTINCTION WATER CONTENT EQUAL TO RESIDUAL WATER CONTENT

EXTINCTION WATER CONTENT FOR CELL AT ROW     9, COLUMN     4 IS LESS THAN RESIDUAL WATER CONTENT-- SETTING EXTINCTION WATER CONTENT EQUAL TO RESIDUAL WATER CONTENT

EXTINCTION WATER CONTENT FOR CELL AT ROW     9, COLUMN     5 IS LESS THAN RESIDUAL WATER CONTENT-- SETTING EXTINCTION WATER CONTENT EQUAL TO RESIDUAL WATER CONTENT

EXTINCTION WATER CONTENT FOR CELL AT ROW     9, COLUMN     6 IS LESS THAN RESIDUAL WATER CONTENT-- SETTING EXTINCTION WATER CONTENT EQUAL TO RESIDUAL WATER CONTENT

EXTINCTION WATER CONTENT FOR CELL AT ROW     9, COLUMN     7 IS LESS THAN RESIDUAL WATER CONTENT-- SETTING EXTINCTION WATER CONTENT EQUAL TO RESIDUAL WATER CONTENT

EXTINCTION WATER CONTENT FOR CELL AT ROW     9, COLUMN     8 IS LESS THAN RESIDUAL WATER CONTENT-- SETTING EXTINCTION WATER CONTENT EQUAL TO RESIDUAL WATER CONTENT

EXTINCTION WATER CONTENT FOR CELL AT ROW     9, COLUMN     9 IS LESS THAN RESIDUAL WATER CONTENT-- SETTING EXTINCTION WATER CONTENT EQUAL TO RESIDUAL WATER CONTENT

EXTINCTION WATER CONTENT FOR CELL AT ROW    10, COLUMN     2 IS LESS THAN RESIDUAL WATER CONTENT-- SETTING EXTINCTION WATER CONTENT EQUAL TO RESIDUAL WATER CONTENT

EXTINCTION WATER CONTENT FOR CELL AT ROW    10, COLUMN     3 IS LESS THAN RESIDUAL WATER CONTENT-- SETTING EXTINCTION WATER CONTENT EQUAL TO RESIDUAL WATER CONTENT

EXTINCTION WATER CONTENT FOR CELL AT ROW    10, COLUMN     4 IS LESS THAN RESIDUAL WATER CONTENT-- SETTING EXTINCTION WATER CONTENT EQUAL TO RESIDUAL WATER CONTENT

EXTINCTION WATER CONTENT FOR CELL AT ROW    10, COLUMN     5 IS LESS THAN RESIDUAL WATER CONTENT-- SETTING EXTINCTION WATER CONTENT EQUAL TO RESIDUAL WATER CONTENT

EXTINCTION WATER CONTENT FOR CELL AT ROW    10, COLUMN     6 IS LESS THAN RESIDUAL WATER CONTENT-- SETTING EXTINCTION WATER CONTENT EQUAL TO RESIDUAL WATER CONTENT

EXTINCTION WATER CONTENT FOR CELL AT ROW    10, COLUMN     7 IS LESS THAN RESIDUAL WATER CONTENT-- SETTING EXTINCTION WATER CONTENT EQUAL TO RESIDUAL WATER CONTENT

EXTINCTION WATER CONTENT FOR CELL AT ROW    10, COLUMN     8 IS LESS THAN RESIDUAL WATER CONTENT-- SETTING EXTINCTION WATER CONTENT EQUAL TO RESIDUAL WATER CONTENT

EXTINCTION WATER CONTENT FOR CELL AT ROW    10, COLUMN     9 IS LESS THAN RESIDUAL WATER CONTENT-- SETTING EXTINCTION WATER CONTENT EQUAL TO RESIDUAL WATER CONTENT

EXTINCTION WATER CONTENT FOR CELL AT ROW    10, COLUMN    10 IS LESS THAN RESIDUAL WATER CONTENT-- SETTING EXTINCTION WATER CONTENT EQUAL TO RESIDUAL WATER CONTENT

EXTINCTION WATER CONTENT FOR CELL AT ROW    11, COLUMN     2 IS LESS THAN RESIDUAL WATER CONTENT-- SETTING EXTINCTION WATER CONTENT EQUAL TO RESIDUAL WATER CONTENT

EXTINCTION WATER CONTENT FOR CELL AT ROW    11, COLUMN     3 IS LESS THAN RESIDUAL WATER CONTENT-- SETTING EXTINCTION WATER CONTENT EQUAL TO RESIDUAL WATER CONTENT

EXTINCTION WATER CONTENT FOR CELL AT ROW    11, COLUMN     4 IS LESS THAN RESIDUAL WATER CONTENT-- SETTING EXTINCTION WATER CONTENT EQUAL TO RESIDUAL WATER CONTENT

EXTINCTION WATER CONTENT FOR CELL AT ROW    11, COLUMN     5 IS LESS THAN RESIDUAL WATER CONTENT-- SETTING EXTINCTION WATER CONTENT EQUAL TO RESIDUAL WATER CONTENT

EXTINCTION WATER CONTENT FOR CELL AT ROW    11, COLUMN     6 IS LESS THAN RESIDUAL WATER CONTENT-- SETTING EXTINCTION WATER CONTENT EQUAL TO RESIDUAL WATER CONTENT

EXTINCTION WATER CONTENT FOR CELL AT ROW    11, COLUMN     7 IS LESS THAN RESIDUAL WATER CONTENT-- SETTING EXTINCTION WATER CONTENT EQUAL TO RESIDUAL WATER CONTENT

EXTINCTION WATER CONTENT FOR CELL AT ROW    11, COLUMN     8 IS LESS THAN RESIDUAL WATER CONTENT-- SETTING EXTINCTION WATER CONTENT EQUAL TO RESIDUAL WATER CONTENT

EXTINCTION WATER CONTENT FOR CELL AT ROW    11, COLUMN     9 IS LESS THAN RESIDUAL WATER CONTENT-- SETTING EXTINCTION WATER CONTENT EQUAL TO RESIDUAL WATER CONTENT

EXTINCTION WATER CONTENT FOR CELL AT ROW    12, COLUMN     1 IS LESS THAN RESIDUAL WATER CONTENT-- SETTING EXTINCTION WATER CONTENT EQUAL TO RESIDUAL WATER CONTENT

EXTINCTION WATER CONTENT FOR CELL AT ROW    12, COLUMN     2 IS LESS THAN RESIDUAL WATER CONTENT-- SETTING EXTINCTION WATER CONTENT EQUAL TO RESIDUAL WATER CONTENT

EXTINCTION WATER CONTENT FOR CELL AT ROW    12, COLUMN     3 IS LESS THAN RESIDUAL WATER CONTENT-- SETTING EXTINCTION WATER CONTENT EQUAL TO RESIDUAL WATER CONTENT

EXTINCTION WATER CONTENT FOR CELL AT ROW    12, COLUMN     4 IS LESS THAN RESIDUAL WATER CONTENT-- SETTING EXTINCTION WATER CONTENT EQUAL TO RESIDUAL WATER CONTENT

EXTINCTION WATER CONTENT FOR CELL AT ROW    12, COLUMN     5 IS LESS THAN RESIDUAL WATER CONTENT-- SETTING EXTINCTION WATER CONTENT EQUAL TO RESIDUAL WATER CONTENT

EXTINCTION WATER CONTENT FOR CELL AT ROW    12, COLUMN     6 IS LESS THAN RESIDUAL WATER CONTENT-- SETTING EXTINCTION WATER CONTENT EQUAL TO RESIDUAL WATER CONTENT

EXTINCTION WATER CONTENT FOR CELL AT ROW    12, COLUMN     7 IS LESS THAN RESIDUAL WATER CONTENT-- SETTING EXTINCTION WATER CONTENT EQUAL TO RESIDUAL WATER CONTENT

EXTINCTION WATER CONTENT FOR CELL AT ROW    12, COLUMN     8 IS LESS THAN RESIDUAL WATER CONTENT-- SETTING EXTINCTION WATER CONTENT EQUAL TO RESIDUAL WATER CONTENT

EXTINCTION WATER CONTENT FOR CELL AT ROW    12, COLUMN     9 IS LESS THAN RESIDUAL WATER CONTENT-- SETTING EXTINCTION WATER CONTENT EQUAL TO RESIDUAL WATER CONTENT

EXTINCTION WATER CONTENT FOR CELL AT ROW    13, COLUMN     1 IS LESS THAN RESIDUAL WATER CONTENT-- SETTING EXTINCTION WATER CONTENT EQUAL TO RESIDUAL WATER CONTENT

EXTINCTION WATER CONTENT FOR CELL AT ROW    13, COLUMN     2 IS LESS THAN RESIDUAL WATER CONTENT-- SETTING EXTINCTION WATER CONTENT EQUAL TO RESIDUAL WATER CONTENT

EXTINCTION WATER CONTENT FOR CELL AT ROW    13, COLUMN     3 IS LESS THAN RESIDUAL WATER CONTENT-- SETTING EXTINCTION WATER CONTENT EQUAL TO RESIDUAL WATER CONTENT

EXTINCTION WATER CONTENT FOR CELL AT ROW    13, COLUMN     4 IS LESS THAN RESIDUAL WATER CONTENT-- SETTING EXTINCTION WATER CONTENT EQUAL TO RESIDUAL WATER CONTENT

EXTINCTION WATER CONTENT FOR CELL AT ROW    13, COLUMN     5 IS LESS THAN RESIDUAL WATER CONTENT-- SETTING EXTINCTION WATER CONTENT EQUAL TO RESIDUAL WATER CONTENT

EXTINCTION WATER CONTENT FOR CELL AT ROW    13, COLUMN     6 IS LESS THAN RESIDUAL WATER CONTENT-- SETTING EXTINCTION WATER CONTENT EQUAL TO RESIDUAL WATER CONTENT

EXTINCTION WATER CONTENT FOR CELL AT ROW    13, COLUMN     7 IS LESS THAN RESIDUAL WATER CONTENT-- SETTING EXTINCTION WATER CONTENT EQUAL TO RESIDUAL WATER CONTENT

EXTINCTION WATER CONTENT FOR CELL AT ROW    13, COLUMN     8 IS LESS THAN RESIDUAL WATER CONTENT-- SETTING EXTINCTION WATER CONTENT EQUAL TO RESIDUAL WATER CONTENT

EXTINCTION WATER CONTENT FOR CELL AT ROW    13, COLUMN     9 IS LESS THAN RESIDUAL WATER CONTENT-- SETTING EXTINCTION WATER CONTENT EQUAL TO RESIDUAL WATER CONTENT

EXTINCTION WATER CONTENT FOR CELL AT ROW    14, COLUMN     2 IS LESS THAN RESIDUAL WATER CONTENT-- SETTING EXTINCTION WATER CONTENT EQUAL TO RESIDUAL WATER CONTENT

EXTINCTION WATER CONTENT FOR CELL AT ROW    14, COLUMN     3 IS LESS THAN RESIDUAL WATER CONTENT-- SETTING EXTINCTION WATER CONTENT EQUAL TO RESIDUAL WATER CONTENT

EXTINCTION WATER CONTENT FOR CELL AT ROW    14, COLUMN     4 IS LESS THAN RESIDUAL WATER CONTENT-- SETTING EXTINCTION WATER CONTENT EQUAL TO RESIDUAL WATER CONTENT

EXTINCTION WATER CONTENT FOR CELL AT ROW    14, COLUMN     5 IS LESS THAN RESIDUAL WATER CONTENT-- SETTING EXTINCTION WATER CONTENT EQUAL TO RESIDUAL WATER CONTENT

EXTINCTION WATER CONTENT FOR CELL AT ROW    14, COLUMN     6 IS LESS THAN RESIDUAL WATER CONTENT-- SETTING EXTINCTION WATER CONTENT EQUAL TO RESIDUAL WATER CONTENT

EXTINCTION WATER CONTENT FOR CELL AT ROW    14, COLUMN     7 IS LESS THAN RESIDUAL WATER CONTENT-- SETTING EXTINCTION WATER CONTENT EQUAL TO RESIDUAL WATER CONTENT

EXTINCTION WATER CONTENT FOR CELL AT ROW    14, COLUMN     8 IS LESS THAN RESIDUAL WATER CONTENT-- SETTING EXTINCTION WATER CONTENT EQUAL TO RESIDUAL WATER CONTENT

EXTINCTION WATER CONTENT FOR CELL AT ROW    14, COLUMN     9 IS LESS THAN RESIDUAL WATER CONTENT-- SETTING EXTINCTION WATER CONTENT EQUAL TO RESIDUAL WATER CONTENT

EXTINCTION WATER CONTENT FOR CELL AT ROW    15, COLUMN     3 IS LESS THAN RESIDUAL WATER CONTENT-- SETTING EXTINCTION WATER CONTENT EQUAL TO RESIDUAL WATER CONTENT

EXTINCTION WATER CONTENT FOR CELL AT ROW    15, COLUMN     4 IS LESS THAN RESIDUAL WATER CONTENT-- SETTING EXTINCTION WATER CONTENT EQUAL TO RESIDUAL WATER CONTENT

EXTINCTION WATER CONTENT FOR CELL AT ROW    15, COLUMN     5 IS LESS THAN RESIDUAL WATER CONTENT-- SETTING EXTINCTION WATER CONTENT EQUAL TO RESIDUAL WATER CONTENT

EXTINCTION WATER CONTENT FOR CELL AT ROW    15, COLUMN     6 IS LESS THAN RESIDUAL WATER CONTENT-- SETTING EXTINCTION WATER CONTENT EQUAL TO RESIDUAL WATER CONTENT

       AIR ENTRY PRESSURE =  -1.10000    

            ROOT PRESSURE =  -75.0000    

            ROOT ACTIVITY =   1.00000    
 # AG segment list

 PROCESSING SEGMENT LIST

 FINISHED READING SEGMENT LIST
 # AG well list

 PROCESSING WELL LIST

 LAYER   ROW   COL   MAX STRESS RATE         
 --------------------------------------------
      1      1      6      4      -100.0    
      2      1      6      5      -100.0    
      3      1      7      4      -100.0    
      4      1      7      5      -100.0    
      5      1      8      4      -100.0    
      6      1      8      5      -100.0    

 FINISHED READING WELL LIST
 # AG stress period

      6 WELLS

 PROCESSING AG STRESS PERIOD DATA

 READING AG STRESS PERIOD DATA

 READING IRRIGATION SEGMENT

 READING IRRIGATION WELL

 READING SUPPLEMENTAL WELL

 NO IRRPOND OR REUSING IRRPOND DATA FROM LAST STRESS PERIOD

 END PROCESSING AG STRESS PERIOD DATA OPTIONS
 
 SOLVING FOR HEAD 
                                                   Max.-Head-Change                         Max.-Flux-Residual
  Residual-Control   Outer-Iter.   Inner-Iter.     Column Row Layer    Maximum-Head-Change  Column Row Layer    Maximum-Flux-Residual          L2-NORM 
          0                 1           6             2    2     1      -0.2843914191E+02       3    3    1        -0.3360741367E+01      0.9336255202E+01
          0                 2           6             1    1     1      -0.3130416779E+02       1   13    1        -0.6347781745E+02      0.6369041869E+02
          0                 3           5             1    1     1      -0.1456238505E+01       6   13    1        -0.2214092883E+01      0.3433615922E+01
          0                 4           5             5   13     1      -0.1645980091E+00       5   13    1        -0.3292041480E+00      0.3977240951E+00
          0                 5           4             5   14     1       0.3281686166E-01       5   13    1         0.1669597068E-01      0.2767752842E-01
          0                 6           2             5   14     1      -0.1281592110E-02       5   13    1        -0.6694907493E-03      0.2031367476E-02
          0                 7           1             5   10     1       0.1514216708E-04       5   10    1         0.2520492239E-04      0.8039520649E-04

    ------------------------------------------------
       NWT REQUIRED            7 OUTER ITERATIONS 
       AND A TOTAL OF         29 INNER ITERATIONS.
    ------------------------------------------------

 OUTPUT CONTROL FOR STRESS PERIOD    1   TIME STEP    1
    PRINT BUDGET
    PRINT HEAD FOR ALL LAYERS
    SAVE BUDGET
    SAVE HEAD FOR ALL LAYERS
 UBDSV2 SAVING "   CONSTANT HEAD" ON UNIT 102 AT TIME STEP 1, STRESS PERIOD 1
 UBDSV1 SAVING "FLOW RIGHT FACE " ON UNIT 102 AT TIME STEP 1, STRESS PERIOD 1
 UBDSV1 SAVING "FLOW FRONT FACE " ON UNIT 102 AT TIME STEP 1, STRESS PERIOD 1

  HEAD DEP BOUNDS   PERIOD    1   STEP     1
 BOUNDARY      1   LAYER   1   ROW    13   COL     1   RATE   -0.287059    
 BOUNDARY      2   LAYER   1   ROW    14   COL     9   RATE    0.285620    



 STREAM LISTING     PERIOD      1   STEP        1

 LAYER ROW COL. STREAM  RCH.  FLOW INTO     FLOW TO   FLOW OUT OF   OVRLND.     DIRECT     STREAM       STREAM     STREAM     STREAM   STREAMBED  STREAMBED
                SEG.NO.  NO.  STRM. RCH.    AQUIFER    STRM. RCH.    RUNOFF     PRECIP       ET          HEAD       DEPTH      WIDTH   CONDCTNC.   GRADIENT

   1    1    1     1     1    3.7500E+00  8.5597E-02   3.6644E+00  0.000E+00  0.000E+00  0.000E+00  1.09373E+03  6.817E-01  5.166E+00  2.325E-02  1.227E+00
   1    2    2     1     2    3.6644E+00  1.3158E-01   3.5328E+00  0.000E+00  0.000E+00  0.000E+00  1.08873E+03  6.747E-01  5.115E+00  3.581E-02  1.225E+00
   1    3    3     1     3    3.5328E+00  1.1125E-01   3.4216E+00  0.000E+00  0.000E+00  0.000E+00  1.08309E+03  6.667E-01  5.057E+00  3.034E-02  1.222E+00
   1    3    4     1     4    3.4216E+00  1.0164E-01   3.3199E+00  0.000E+00  0.000E+00  0.000E+00  1.07807E+03  6.595E-01  5.004E+00  2.777E-02  1.220E+00
   1    4    5     2     1    1.3199E+00  2.4920E-01   1.0707E+00  0.000E+00  0.000E+00  0.000E+00  1.07213E+03  1.948E-01  1.200E+01  7.800E-02  1.065E+00
   1    5    6     2     2    1.0707E+00  1.9035E-01   8.8040E-01  0.000E+00  0.000E+00  0.000E+00  1.06668E+03  1.725E-01  1.200E+01  6.000E-02  1.057E+00
   1    6    6     2     3    8.8040E-01  1.8909E-01   6.9131E-01  0.000E+00  0.000E+00  0.000E+00  1.06194E+03  1.515E-01  1.200E+01  6.000E-02  1.050E+00
   1    7    6     2     4    6.9131E-01  1.8771E-01   5.0360E-01  0.000E+00  0.000E+00  0.000E+00  1.05720E+03  1.285E-01  1.200E+01  6.000E-02  1.043E+00
   1    8    6     2     5    5.0360E-01  1.8616E-01   3.1744E-01  0.000E+00  0.000E+00  0.000E+00  1.05246E+03  1.026E-01  1.200E+01  6.000E-02  1.034E+00
   1    3    5     3     1    2.0000E+00  2.8252E-01   1.7175E+00  0.000E+00  0.000E+00  0.000E+00  1.07555E+03  1.909E+00  9.636E+00  7.227E-02  1.955E+00
   1    3    6     3     2    1.7175E+00  2.4905E-01   1.4684E+00  0.000E+00  0.000E+00  0.000E+00  1.07264E+03  1.727E+00  8.909E+00  6.682E-02  1.864E+00
   1    3    7     3     3    1.4684E+00  1.9718E-01   1.2712E+00  0.000E+00  0.000E+00  0.000E+00  1.06987E+03  1.555E+00  8.218E+00  5.547E-02  1.777E+00
   1    4    8     3     4    1.2712E+00  2.2567E-01   1.0456E+00  0.000E+00  0.000E+00  0.000E+00  1.06682E+03  1.364E+00  7.455E+00  6.709E-02  1.682E+00
   1    5    8     3     5    1.0456E+00  1.5790E-01   8.8768E-01  0.000E+00  0.000E+00  0.000E+00  1.06362E+03  1.164E+00  6.655E+00  4.991E-02  1.582E+00
   1    6    8     3     6    8.8768E-01  5.5980E-02   8.3170E-01  0.000E+00  0.000E+00  0.000E+00  1.06158E+03  1.036E+00  6.145E+00  1.844E-02  1.518E+00
   1    5   10     4     1    1.0000E+01  9.0919E-02   9.9091E+00  0.000E+00  0.000E+00  0.000E+00  1.07836E+03  6.368E-01  1.000E+01  2.500E-02  1.212E+00
   1    5    9     4     2    9.9091E+00  1.8158E-01   9.7275E+00  0.000E+00  0.000E+00  0.000E+00  1.07154E+03  6.315E-01  1.000E+01  5.000E-02  1.211E+00
   1    6    8     4     3    9.7275E+00  1.2689E-01   9.6006E+00  0.000E+00  0.000E+00  0.000E+00  1.06381E+03  6.256E-01  1.000E+01  3.500E-02  1.209E+00
   1    6    8     5     1    1.0432E+01  2.2686E-01   1.0205E+01  0.000E+00  0.000E+00  0.000E+00  1.05868E+03  6.790E-01  1.542E+01  6.166E-02  1.226E+00
   1    7    7     5     2    1.0205E+01  2.7894E-01   9.9265E+00  0.000E+00  0.000E+00  0.000E+00  1.05417E+03  6.732E-01  1.519E+01  7.594E-02  1.224E+00
   1    8    7     5     3    9.9265E+00  1.9221E-01   9.7343E+00  0.000E+00  0.000E+00  0.000E+00  1.04992E+03  6.676E-01  1.497E+01  5.241E-02  1.223E+00
   1    8    6     5     4    9.7343E+00  1.3577E-01   9.5985E+00  0.000E+00  0.000E+00  0.000E+00  1.04691E+03  6.637E-01  1.482E+01  3.706E-02  1.221E+00
   1    9    6     6     1    9.9160E+00  2.2178E-01   9.6942E+00  0.000E+00  0.000E+00  0.000E+00  1.04342E+03  6.964E-01  1.200E+01  6.000E-02  1.232E+00
   1   10    7     6     2    9.6942E+00  2.2121E-01   9.4730E+00  0.000E+00  0.000E+00  0.000E+00  1.03887E+03  6.869E-01  1.200E+01  6.000E-02  1.229E+00
   1   11    7     6     3    9.4730E+00  2.2064E-01   9.2523E+00  0.000E+00  0.000E+00  0.000E+00  1.03431E+03  6.773E-01  1.200E+01  6.000E-02  1.226E+00
   1   12    7     6     4    9.2523E+00  2.2006E-01   9.0323E+00  0.000E+00  0.000E+00  0.000E+00  1.02976E+03  6.677E-01  1.200E+01  6.000E-02  1.223E+00
   1   13    7     6     5    9.0323E+00 -1.1354E-01   9.1458E+00  0.000E+00  0.000E+00  0.000E+00  1.02657E+03  6.654E-01  1.200E+01  2.400E-01 -1.577E-01
   1   14    9     7     1    1.5000E+02  1.3338E+00   1.4867E+02  0.000E+00  0.000E+00  0.000E+00  1.03987E+03  2.288E+00  5.529E+01  5.593E-01  7.949E-01
   1   13    8     7     2    1.4867E+02  1.8355E+00   1.4683E+02  0.000E+00  0.000E+00  0.000E+00  1.03478E+03  2.279E+00  5.526E+01  6.148E-01  9.952E-01
   1   13    7     7     3    1.4683E+02  1.4756E+00   1.4536E+02  0.000E+00  0.000E+00  0.000E+00  1.02969E+03  2.270E+00  5.522E+01  5.585E-01  8.807E-01
   1   13    6     8     1    1.5450E+02  8.2944E-01   1.5367E+02  0.000E+00  0.000E+00  0.000E+00  1.02472E+03  2.845E+00  4.126E+01  4.204E-01  6.576E-01
   1   13    5     8     2    1.5367E+02  1.0127E-01   1.5357E+02  0.000E+00  0.000E+00  0.000E+00  1.01847E+03  2.842E+00  4.121E+01  4.200E-01  8.038E-02
   1   13    4     8     3    1.5357E+02 -2.6792E+00   1.5625E+02  0.000E+00  0.000E+00  0.000E+00  1.01223E+03  2.851E+00  4.134E+01  4.213E+00 -2.120E-01
   1   13    3     8     4    1.5625E+02 -3.7567E+00   1.6001E+02  0.000E+00  0.000E+00  0.000E+00  1.00600E+03  2.873E+00  4.166E+01  4.245E+00 -2.950E-01
   1   13    2     8     5    1.6001E+02 -2.6055E+00   1.6261E+02  0.000E+00  0.000E+00  0.000E+00  9.99770E+02  2.895E+00  4.197E+01  4.277E+00 -2.031E-01
   1   13    1     8     6    1.6261E+02 -1.9843E+00   1.6460E+02  0.000E+00  0.000E+00  0.000E+00  9.94785E+02  2.910E+00  4.220E+01  2.580E+00 -2.564E-01
   1    8    6     9     1    0.0000E+00  0.0000E+00   0.0000E+00  0.000E+00  0.000E+00  0.000E+00  1.07875E+03  0.000E+00  4.000E+00  0.000E+00  1.000E+00
   1    8    5     9     2    0.0000E+00  0.0000E+00   0.0000E+00  0.000E+00  0.000E+00  0.000E+00  1.07825E+03  0.000E+00  4.000E+00  0.000E+00  1.000E+00



 UBDSV3 SAVING "           GW ET" ON UNIT  61 AT TIME STEP 1, STRESS PERIOD 1
 UBDSV3 SAVING "    UZF RECHARGE" ON UNIT  61 AT TIME STEP 1, STRESS PERIOD 1
 UBDSV3 SAVING " SURFACE LEAKAGE" ON UNIT  61 AT TIME STEP 1, STRESS PERIOD 1
 UBDSV3 SAVING "       HORT+DUNN" ON UNIT  61 AT TIME STEP 1, STRESS PERIOD 1
 UBDSV3 SAVING "  STORAGE CHANGE" ON UNIT  61 AT TIME STEP 1, STRESS PERIOD 1


UNSATURATED ZONE PACKAGE VOLUMETRIC BUDGET FOR  TIME STEP     1 STRESS PERIOD    1
  ------------------------------------------------------------------------------



     CUMULATIVE VOLUMES      L**3       RATES FOR THIS TIME STEP      L**3/T
     ------------------                 ------------------------

           IN:                                      IN:
           ---                                      ---
        INFILTRATION =       73224.0000          INFILTRATION =           0.8475

          OUT:                                     OUT:
          ----                                     ----
              UZF ET =       0.0000E+00                UZF ET =       0.0000E+00
        UZF RECHARGE =       73224.0000          UZF RECHARGE =           0.8475

            IN - OUT =       0.0000E+00              IN - OUT =       0.0000E+00

          STORAGE:                                 STORAGE:
          --------                                 --------
      STORAGE CHANGE =       0.0000E+00        STORAGE CHANGE =       0.0000E+00

 PERCENT DISCREPANCY IS DIFFERENCE BETWEEN IN-OUT MINUS CHANGE IN STORAGE
 DIVIDED BY THE AVERAGE OF IN AND OUT TIMES 100

 PERCENT DISCREPANCY =           0.00     PERCENT DISCREPANCY =           0.00






 

            AG WELLS      PERIOD    1   STEP   1
 AG WELL      1   LAYER   1   ROW     6   COL     4   RATE     0.00000    
 AG WELL      2   LAYER   1   ROW     6   COL     5   RATE     0.00000    
 AG WELL      3   LAYER   1   ROW     7   COL     4   RATE     0.00000    
 AG WELL      4   LAYER   1   ROW     7   COL     5   RATE     0.00000    
 AG WELL      5   LAYER   1   ROW     8   COL     4   RATE     0.00000    
 AG WELL      6   LAYER   1   ROW     8   COL     5   RATE     0.00000    
 
 

   DIVERSION SEGMENTS     PERIOD    1   STEP   1
 
 

        SW IRRIGATION     PERIOD    1   STEP   1
 
 

        GW IRRIGATION     PERIOD    1   STEP   1
 
1
  VOLUMETRIC BUDGET FOR AGRICULTURAL FIELDS AT  END OF TIME STEP    1, STRESS PERIOD   1
  ------------------------------------------------------------------------------

     CUMULATIVE VOLUMES      L**3       RATES FOR THIS TIME STEP      L**3/T
     ------------------                 ------------------------

           IN:                                      IN:
           ---                                      ---
               AG WELLS  =           0.0000                 AG WELLS  =           0.0000
      DIVERSION SEGMENTS =           0.0000        DIVERSION SEGMENTS =           0.0000
       IRRIGATION PONDS  =           0.0000         IRRIGATION PONDS  =           0.0000
           GW IRRIGATION =           0.0000             GW IRRIGATION =           0.0000
           SW IRRIGATION =           0.0000             SW IRRIGATION =           0.0000
        SYSTEM LOSSES GW =           0.0000          SYSTEM LOSSES GW =           0.0000
        SYSTEM LOSSES SW =           0.0000          SYSTEM LOSSES SW =           0.0000

                TOTAL IN =           0.0000                  TOTAL IN =           0.0000

          OUT:                                     OUT:
          ----                                     ----
               AG WELLS  =           0.0000                 AG WELLS  =           0.0000
      DIVERSION SEGMENTS =           0.0000        DIVERSION SEGMENTS =           0.0000
       IRRIGATION PONDS  =           0.0000         IRRIGATION PONDS  =           0.0000
           GW IRRIGATION =           0.0000             GW IRRIGATION =           0.0000
           SW IRRIGATION =           0.0000             SW IRRIGATION =           0.0000
        SYSTEM LOSSES GW =           0.0000          SYSTEM LOSSES GW =           0.0000
        SYSTEM LOSSES SW =           0.0000          SYSTEM LOSSES SW =           0.0000

               TOTAL OUT =           0.0000                 TOTAL OUT =           0.0000

                IN - OUT =           0.0000                  IN - OUT =           0.0000

     PERCENT DISCREPANCY =           0.00         PERCENT DISCREPANCY =           0.00



1
              HEAD IN LAYER 1 AT END OF TIME STEP 1 IN STRESS PERIOD 1
  ---------------------------------------------------------------------------

           1       2       3       4       5       6       7       8       9      10
 ...................................................................................
   1  1032.36 1031.32 6999.00 6999.00 6999.00 6999.00 6999.00 6999.00 6999.00 6999.00
   2  1031.40 1030.17 1029.58 6999.00 6999.00 1030.68 1030.83 1030.79 6999.00 6999.00
   3  6999.00 1029.27 1028.96 1028.73 1029.28 1029.91 1030.40 1030.37 6999.00 6999.00
   4  1028.57 1028.53 1028.35 1028.17 1028.24 1028.30 1028.78 1029.83 1029.56 6999.00
   5  1028.13 1027.76 1027.59 1027.51 1027.61 1027.82 1027.99 1028.47 1029.10 1029.63
   6  1027.57 1027.02 1026.83 1026.81 1026.93 1027.26 1027.55 1028.08 1028.52 1029.45
   7  1027.07 1026.08 1025.92 1025.96 1026.14 1026.55 1026.98 1027.45 1027.96 6999.00
   8  6999.00 1024.71 1024.75 1024.91 1025.15 1025.65 1026.08 1026.80 1027.36 6999.00
   9  6999.00 1022.70 1023.03 1023.48 1023.88 1024.53 1025.05 1025.79 1026.91 6999.00
  10  6999.00 1019.87 1020.64 1021.69 1022.47 1023.49 1024.39 1025.46 1027.07 1027.71
  11  6999.00 1015.35 1016.78 1019.32 1020.96 1022.69 1024.22 1026.00 1028.19 6999.00
  12  1001.91 1007.94 1012.08 1016.04 1019.32 1022.30 1024.79 1028.19 1031.18 6999.00
  13   995.55 1000.38 1006.88 1012.86 1018.23 1022.75 1027.05 1031.79 1034.63 6999.00
  14  6999.00 1005.79 1008.88 1013.53 1018.29 1022.70 1027.60 1033.07 1037.48 6999.00
  15  6999.00 6999.00 1012.52 1015.24 1018.71 1021.73 6999.00 6999.00 6999.00 6999.00

 HEAD WILL BE SAVED ON UNIT   62 AT END OF TIME STEP    1, STRESS PERIOD    1
1
  VOLUMETRIC BUDGET FOR ENTIRE MODEL AT END OF TIME STEP    1, STRESS PERIOD   1
  ------------------------------------------------------------------------------

     CUMULATIVE VOLUMES      L**3       RATES FOR THIS TIME STEP      L**3/T
     ------------------                 ------------------------

           IN:                                      IN:
           ---                                      ---
             STORAGE     =           0.0000               STORAGE     =           0.0000
       CONSTANT HEAD     =           0.0000         CONSTANT HEAD     =           0.0000
     HEAD DEP BOUNDS     =       24677.5273       HEAD DEP BOUNDS     =           0.2856
      STREAM LEAKAGE     =      889333.8125        STREAM LEAKAGE     =          10.2932
        UZF RECHARGE     =       73223.9531          UZF RECHARGE     =           0.8475
               GW ET     =           0.0000                 GW ET     =           0.0000
     SURFACE LEAKAGE     =           0.0000       SURFACE LEAKAGE     =           0.0000
           AG WELLS      =           0.0000             AG WELLS      =           0.0000

                TOTAL IN =      987235.2500                  TOTAL IN =          11.4263

          OUT:                                     OUT:
          ----                                     ----
             STORAGE     =           0.0000               STORAGE     =           0.0000
       CONSTANT HEAD     =           0.0000         CONSTANT HEAD     =           0.0000
     HEAD DEP BOUNDS     =       24801.8652       HEAD DEP BOUNDS     =           0.2871
      STREAM LEAKAGE     =      962433.3125        STREAM LEAKAGE     =          11.1393
        UZF RECHARGE     =           0.0000          UZF RECHARGE     =           0.0000
               GW ET     =           0.0000                 GW ET     =           0.0000
     SURFACE LEAKAGE     =           0.0000       SURFACE LEAKAGE     =           0.0000
           AG WELLS      =           0.0000             AG WELLS      =           0.0000

               TOTAL OUT =      987235.1875                 TOTAL OUT =          11.4263

                IN - OUT =       6.2500E-02                  IN - OUT =       1.9073E-06

     PERCENT DISCREPANCY =           0.00         PERCENT DISCREPANCY =           0.00






         TIME SUMMARY AT END OF TIME STEP    1 IN STRESS PERIOD    1
                    SECONDS     MINUTES      HOURS       DAYS        YEARS
                    -----------------------------------------------------------
   TIME STEP LENGTH  86400.      1440.0      24.000      1.0000     2.73785E-03
 STRESS PERIOD TIME  86400.      1440.0      24.000      1.0000     2.73785E-03
         TOTAL TIME  86400.      1440.0      24.000      1.0000     2.73785E-03
1
1
                            STRESS PERIOD NO.    2, LENGTH =   2630000.    
                            -----------------------------------------------

                              NUMBER OF TIME STEPS =    30

                               MULTIPLIER FOR DELT =     1.000

                            INITIAL TIME STEP SIZE =   87666.66    

 REUSING NON-PARAMETER GHB CELLS FROM LAST STRESS PERIOD

      2 GHB CELLS

 REUSING STREAM SEGMENT DATA FROM LAST STRESS PERIOD



            AREAL INFILTRATION RATE
 READING ON UNIT   19 WITH FORMAT: (FREE)              

            1           2           3           4           5           6           7           8           9          10
 ........................................................................................................................
   1   1.0000E-10  2.0000E-10   0.000       0.000       0.000       0.000       0.000       0.000       0.000       0.000    
   2   2.0000E-10  1.0000E-10  2.0000E-10   0.000       0.000      8.0000E-10  8.0000E-10  5.0000E-10   0.000       0.000    
   3    0.000      5.0000E-10  1.0000E-10  1.0000E-10  8.0000E-10  8.0000E-10  5.0000E-10  5.0000E-10   0.000       0.000    
   4   8.0000E-10  5.0000E-10  1.0000E-10  1.0000E-10  1.0000E-10  1.0000E-10  1.0000E-10  1.0000E-10  2.0000E-10   0.000    
   5   8.0000E-10  5.0000E-10  1.0000E-10  1.0000E-10  1.0000E-10  1.0000E-10  1.0000E-10  1.0000E-10  1.0000E-10  1.0000E-10
   6   8.0000E-10  5.0000E-10  5.0000E-10  2.0000E-10  2.0000E-10  1.0000E-10  1.0000E-10  1.0000E-10  1.0000E-10  5.0000E-10
   7   8.0000E-10  5.0000E-10  5.0000E-10  2.0000E-10  2.0000E-10  1.0000E-10  1.0000E-10  2.0000E-10  2.0000E-10   0.000    
   8    0.000      5.0000E-10  5.0000E-10  2.0000E-10  2.0000E-10  1.0000E-10  1.0000E-10  2.0000E-10  5.0000E-10   0.000    
   9    0.000      5.0000E-10  5.0000E-10  2.0000E-10  2.0000E-10  1.0000E-10  1.0000E-10  2.0000E-10  5.0000E-10   0.000    
  10    0.000      5.0000E-10  5.0000E-10  2.0000E-10  2.0000E-10  1.0000E-10  1.0000E-10  2.0000E-10  5.0000E-10  8.0000E-10
  11    0.000      1.0000E-10  1.0000E-10  1.0000E-10  1.0000E-10  1.0000E-10  1.0000E-10  2.0000E-10  5.0000E-10   0.000    
  12   1.0000E-10  1.0000E-10  1.0000E-10  1.0000E-10  1.0000E-10  1.0000E-10  1.0000E-10  1.0000E-10  2.0000E-10   0.000    
  13   1.0000E-10  1.0000E-10  2.0000E-10  2.0000E-10  2.0000E-10  2.0000E-10  2.0000E-10  1.0000E-10  1.0000E-10   0.000    
  14    0.000      2.0000E-10  5.0000E-10  5.0000E-10  5.0000E-10  5.0000E-10  5.0000E-10  2.0000E-10  1.0000E-10   0.000    
  15    0.000       0.000      8.0000E-10  8.0000E-10  8.0000E-10  8.0000E-10   0.000       0.000       0.000       0.000    

                  ET RATE =  5.000000E-10

 USING ET EXTINCTION DEPTH FROM PREVIOUS STRESS PERIOD. CURRENT PERIOD IS:       2

 USING EXTINCTION WATER CONTENT FROM PREVIOUS STRESS PERIOD. CURRENT PERIOD IS:       2

 USING AIR ENTRY PRESSURE FROM PREVIOUS STRESS PERIOD. CURRENT PERIOD IS:       2

 USING ROOT PRESSURE HEAD FROM PREVIOUS STRESS PERIOD. CURRENT PERIOD IS:       2

 USING ROOT ACTIVITY FROM PREVIOUS STRESS PERIOD. CURRENT PERIOD IS:       2

 PROCESSING AG STRESS PERIOD DATA

 READING AG STRESS PERIOD DATA

 READING IRRIGATION SEGMENT

 READING IRRIGATION WELL

 READING SUPPLEMENTAL WELL

 NO IRRPOND OR REUSING IRRPOND DATA FROM LAST STRESS PERIOD

 END PROCESSING AG STRESS PERIOD DATA OPTIONS
 
 SOLVING FOR HEAD 
                                                   Max.-Head-Change                         Max.-Flux-Residual
  Residual-Control   Outer-Iter.   Inner-Iter.     Column Row Layer    Maximum-Head-Change  Column Row Layer    Maximum-Flux-Residual          L2-NORM 
          0                 1           2             4   13     1       0.4516090521E-02       4   13    1         0.2587981320E+00      0.5589996200E+00
          0                 2           2             4   13     1      -0.4346343863E-03       4   13    1        -0.2560894401E-01      0.5485536502E-01
          0                 3           1             4   13     1       0.2895109903E-04       4   13    1         0.1753708056E-02      0.3737779858E-02

    ------------------------------------------------
       NWT REQUIRED            3 OUTER ITERATIONS 
       AND A TOTAL OF          5 INNER ITERATIONS.
    ------------------------------------------------

 OUTPUT CONTROL FOR STRESS PERIOD    2   TIME STEP    1
    PRINT BUDGET
    PRINT HEAD FOR ALL LAYERS
    SAVE BUDGET
 UBDSV1 SAVING "         STORAGE" ON UNIT 102 AT TIME STEP 1, STRESS PERIOD 2
 UBDSV2 SAVING "   CONSTANT HEAD" ON UNIT 102 AT TIME STEP 1, STRESS PERIOD 2
 UBDSV1 SAVING "FLOW RIGHT FACE " ON UNIT 102 AT TIME STEP 1, STRESS PERIOD 2
 UBDSV1 SAVING "FLOW FRONT FACE " ON UNIT 102 AT TIME STEP 1, STRESS PERIOD 2

  HEAD DEP BOUNDS   PERIOD    2   STEP     1
 BOUNDARY      1   LAYER   1   ROW    13   COL     1   RATE   -0.287146    
 BOUNDARY      2   LAYER   1   ROW    14   COL     9   RATE    0.285621    



 STREAM LISTING     PERIOD      2   STEP        1

 LAYER ROW COL. STREAM  RCH.  FLOW INTO     FLOW TO   FLOW OUT OF   OVRLND.     DIRECT     STREAM       STREAM     STREAM     STREAM   STREAMBED  STREAMBED
                SEG.NO.  NO.  STRM. RCH.    AQUIFER    STRM. RCH.    RUNOFF     PRECIP       ET          HEAD       DEPTH      WIDTH   CONDCTNC.   GRADIENT

   1    1    1     1     1    1.6500E+01  1.9759E-01   1.6302E+01  0.000E+00  0.000E+00  0.000E+00  1.09409E+03  1.039E+00  1.087E+01  4.893E-02  1.346E+00
   1    2    2     1     2    1.6302E+01  3.0466E-01   1.5998E+01  0.000E+00  0.000E+00  0.000E+00  1.08909E+03  1.034E+00  1.079E+01  7.552E-02  1.345E+00
   1    3    3     1     3    1.5998E+01  2.5853E-01   1.5739E+01  0.000E+00  0.000E+00  0.000E+00  1.08345E+03  1.029E+00  1.070E+01  6.417E-02  1.343E+00
   1    3    4     1     4    1.5739E+01  2.3700E-01   1.5502E+01  0.000E+00  0.000E+00  0.000E+00  1.07843E+03  1.024E+00  1.061E+01  5.889E-02  1.341E+00
   1    4    5     2     1    1.3502E+01  2.9865E-01   1.3204E+01  0.000E+00  0.000E+00  0.000E+00  1.07276E+03  8.289E-01  1.200E+01  7.800E-02  1.276E+00
   1    5    6     2     2    1.3204E+01  2.2914E-01   1.2974E+01  0.000E+00  0.000E+00  0.000E+00  1.06733E+03  8.190E-01  1.200E+01  6.000E-02  1.273E+00
   1    6    6     2     3    1.2974E+01  2.2862E-01   1.2746E+01  0.000E+00  0.000E+00  0.000E+00  1.06260E+03  8.104E-01  1.200E+01  6.000E-02  1.270E+00
   1    7    6     2     4    1.2746E+01  2.2810E-01   1.2518E+01  0.000E+00  0.000E+00  0.000E+00  1.05788E+03  8.017E-01  1.200E+01  6.000E-02  1.267E+00
   1    8    6     2     5    1.2518E+01  2.2758E-01   1.2290E+01  0.000E+00  0.000E+00  0.000E+00  1.05315E+03  7.930E-01  1.200E+01  6.000E-02  1.264E+00
   1    3    5     3     1    2.0000E+00  2.8252E-01   1.7175E+00  0.000E+00  0.000E+00  0.000E+00  1.07555E+03  1.909E+00  9.636E+00  7.227E-02  1.955E+00
   1    3    6     3     2    1.7175E+00  2.4905E-01   1.4684E+00  0.000E+00  0.000E+00  0.000E+00  1.07264E+03  1.727E+00  8.909E+00  6.682E-02  1.864E+00
   1    3    7     3     3    1.4684E+00  1.9718E-01   1.2712E+00  0.000E+00  0.000E+00  0.000E+00  1.06987E+03  1.555E+00  8.218E+00  5.547E-02  1.777E+00
   1    4    8     3     4    1.2712E+00  2.2567E-01   1.0456E+00  0.000E+00  0.000E+00  0.000E+00  1.06682E+03  1.364E+00  7.455E+00  6.709E-02  1.682E+00
   1    5    8     3     5    1.0456E+00  1.5790E-01   8.8768E-01  0.000E+00  0.000E+00  0.000E+00  1.06362E+03  1.164E+00  6.655E+00  4.991E-02  1.582E+00
   1    6    8     3     6    8.8768E-01  5.5980E-02   8.3170E-01  0.000E+00  0.000E+00  0.000E+00  1.06158E+03  1.036E+00  6.145E+00  1.844E-02  1.518E+00
   1    5   10     4     1    1.0000E+01  9.0919E-02   9.9091E+00  0.000E+00  0.000E+00  0.000E+00  1.07836E+03  6.368E-01  1.000E+01  2.500E-02  1.212E+00
   1    5    9     4     2    9.9091E+00  1.8158E-01   9.7275E+00  0.000E+00  0.000E+00  0.000E+00  1.07154E+03  6.315E-01  1.000E+01  5.000E-02  1.211E+00
   1    6    8     4     3    9.7275E+00  1.2689E-01   9.6006E+00  0.000E+00  0.000E+00  0.000E+00  1.06381E+03  6.256E-01  1.000E+01  3.500E-02  1.209E+00
   1    6    8     5     1    1.0432E+01  2.2686E-01   1.0205E+01  0.000E+00  0.000E+00  0.000E+00  1.05868E+03  6.790E-01  1.542E+01  6.166E-02  1.226E+00
   1    7    7     5     2    1.0205E+01  2.7894E-01   9.9265E+00  0.000E+00  0.000E+00  0.000E+00  1.05417E+03  6.732E-01  1.519E+01  7.594E-02  1.224E+00
   1    8    7     5     3    9.9265E+00  1.9221E-01   9.7343E+00  0.000E+00  0.000E+00  0.000E+00  1.04992E+03  6.676E-01  1.497E+01  5.241E-02  1.223E+00
   1    8    6     5     4    9.7343E+00  1.3577E-01   9.5985E+00  0.000E+00  0.000E+00  0.000E+00  1.04691E+03  6.637E-01  1.482E+01  3.706E-02  1.221E+00
   1    9    6     6     1    2.1889E+01  2.4742E-01   2.1641E+01  0.000E+00  0.000E+00  0.000E+00  1.04385E+03  1.124E+00  1.200E+01  6.000E-02  1.375E+00
   1   10    7     6     2    2.1641E+01  2.4696E-01   2.1394E+01  0.000E+00  0.000E+00  0.000E+00  1.03930E+03  1.116E+00  1.200E+01  6.000E-02  1.372E+00
   1   11    7     6     3    2.1394E+01  2.4650E-01   2.1148E+01  0.000E+00  0.000E+00  0.000E+00  1.03474E+03  1.108E+00  1.200E+01  6.000E-02  1.369E+00
   1   12    7     6     4    2.1148E+01  2.4603E-01   2.0902E+01  0.000E+00  0.000E+00  0.000E+00  1.03019E+03  1.101E+00  1.200E+01  6.000E-02  1.367E+00
   1   13    7     6     5    2.0902E+01 -1.0396E-02   2.0912E+01  0.000E+00  0.000E+00  0.000E+00  1.02701E+03  1.097E+00  1.200E+01  2.400E-01 -1.444E-02
   1   14    9     7     1    1.5000E+02  1.3338E+00   1.4867E+02  0.000E+00  0.000E+00  0.000E+00  1.03987E+03  2.288E+00  5.529E+01  5.593E-01  7.949E-01
   1   13    8     7     2    1.4867E+02  1.8355E+00   1.4683E+02  0.000E+00  0.000E+00  0.000E+00  1.03478E+03  2.279E+00  5.526E+01  6.148E-01  9.952E-01
   1   13    7     7     3    1.4683E+02  1.4746E+00   1.4536E+02  0.000E+00  0.000E+00  0.000E+00  1.02969E+03  2.270E+00  5.522E+01  5.585E-01  8.802E-01
   1   13    6     8     1    1.6627E+02  8.8653E-01   1.6538E+02  0.000E+00  0.000E+00  0.000E+00  1.02480E+03  2.925E+00  4.241E+01  4.322E-01  6.838E-01
   1   13    5     8     2    1.6538E+02  1.3805E-01   1.6524E+02  0.000E+00  0.000E+00  0.000E+00  1.01855E+03  2.921E+00  4.236E+01  4.317E-01  1.066E-01
   1   13    4     8     3    1.6524E+02 -2.4329E+00   1.6768E+02  0.000E+00  0.000E+00  0.000E+00  1.01230E+03  2.929E+00  4.247E+01  4.328E+00 -1.874E-01
   1   13    3     8     4    1.6768E+02 -3.5424E+00   1.7122E+02  0.000E+00  0.000E+00  0.000E+00  1.00607E+03  2.949E+00  4.275E+01  4.357E+00 -2.710E-01
   1   13    2     8     5    1.7122E+02 -2.3687E+00   1.7359E+02  0.000E+00  0.000E+00  0.000E+00  9.99843E+02  2.968E+00  4.303E+01  4.385E+00 -1.800E-01
   1   13    1     8     6    1.7359E+02 -1.8506E+00   1.7544E+02  0.000E+00  0.000E+00  0.000E+00  9.94856E+02  2.981E+00  4.323E+01  2.643E+00 -2.334E-01
   1    8    6     9     1    0.0000E+00  0.0000E+00   0.0000E+00  0.000E+00  0.000E+00  0.000E+00  1.07875E+03  0.000E+00  4.000E+00  0.000E+00  1.000E+00
   1    8    5     9     2    0.0000E+00  0.0000E+00   0.0000E+00  0.000E+00  0.000E+00  0.000E+00  1.07825E+03  0.000E+00  4.000E+00  0.000E+00  1.000E+00



 UBDSV3 SAVING "           GW ET" ON UNIT  61 AT TIME STEP 1, STRESS PERIOD 2
 UBDSV3 SAVING "    UZF RECHARGE" ON UNIT  61 AT TIME STEP 1, STRESS PERIOD 2
 UBDSV3 SAVING " SURFACE LEAKAGE" ON UNIT  61 AT TIME STEP 1, STRESS PERIOD 2
 UBDSV3 SAVING "       HORT+DUNN" ON UNIT  61 AT TIME STEP 1, STRESS PERIOD 2
 UBDSV3 SAVING "  STORAGE CHANGE" ON UNIT  61 AT TIME STEP 1, STRESS PERIOD 2


UNSATURATED ZONE PACKAGE VOLUMETRIC BUDGET FOR  TIME STEP     1 STRESS PERIOD    2
  ------------------------------------------------------------------------------



     CUMULATIVE VOLUMES      L**3       RATES FOR THIS TIME STEP      L**3/T
     ------------------                 ------------------------

           IN:                                      IN:
           ---                                      ---
        INFILTRATION =      147521.4958          INFILTRATION =           0.8475

          OUT:                                     OUT:
          ----                                     ----
              UZF ET =       65735.6246                UZF ET =           0.7498
        UZF RECHARGE =       73224.0000          UZF RECHARGE =       0.0000E+00

            IN - OUT =        8561.8711              IN - OUT =       9.7664E-02

          STORAGE:                                 STORAGE:
          --------                                 --------
      STORAGE CHANGE =        8561.8722        STORAGE CHANGE =       9.7664E-02

 PERCENT DISCREPANCY IS DIFFERENCE BETWEEN IN-OUT MINUS CHANGE IN STORAGE
 DIVIDED BY THE AVERAGE OF IN AND OUT TIMES 100

 PERCENT DISCREPANCY =           0.00     PERCENT DISCREPANCY =           0.00






 

            AG WELLS      PERIOD    2   STEP   1
 AG WELL      1   LAYER   1   ROW     6   COL     4   RATE     0.00000    
 AG WELL      2   LAYER   1   ROW     6   COL     5   RATE     0.00000    
 AG WELL      3   LAYER   1   ROW     7   COL     4   RATE     0.00000    
 AG WELL      4   LAYER   1   ROW     7   COL     5   RATE     0.00000    
 AG WELL      5   LAYER   1   ROW     8   COL     4   RATE     0.00000    
 AG WELL      6   LAYER   1   ROW     8   COL     5   RATE     0.00000    
 
 

   DIVERSION SEGMENTS     PERIOD    2   STEP   1
 
 

        SW IRRIGATION     PERIOD    2   STEP   1
 
 

        GW IRRIGATION     PERIOD    2   STEP   1
 
1
  VOLUMETRIC BUDGET FOR AGRICULTURAL FIELDS AT  END OF TIME STEP    1, STRESS PERIOD   2
  ------------------------------------------------------------------------------

     CUMULATIVE VOLUMES      L**3       RATES FOR THIS TIME STEP      L**3/T
     ------------------                 ------------------------

           IN:                                      IN:
           ---                                      ---
               AG WELLS  =           0.0000                 AG WELLS  =           0.0000
      DIVERSION SEGMENTS =           0.0000        DIVERSION SEGMENTS =           0.0000
       IRRIGATION PONDS  =           0.0000         IRRIGATION PONDS  =           0.0000
           GW IRRIGATION =           0.0000             GW IRRIGATION =           0.0000
           SW IRRIGATION =           0.0000             SW IRRIGATION =           0.0000
        SYSTEM LOSSES GW =           0.0000          SYSTEM LOSSES GW =           0.0000
        SYSTEM LOSSES SW =           0.0000          SYSTEM LOSSES SW =           0.0000

                TOTAL IN =           0.0000                  TOTAL IN =           0.0000

          OUT:                                     OUT:
          ----                                     ----
               AG WELLS  =           0.0000                 AG WELLS  =           0.0000
      DIVERSION SEGMENTS =           0.0000        DIVERSION SEGMENTS =           0.0000
       IRRIGATION PONDS  =           0.0000         IRRIGATION PONDS  =           0.0000
           GW IRRIGATION =           0.0000             GW IRRIGATION =           0.0000
           SW IRRIGATION =           0.0000             SW IRRIGATION =           0.0000
        SYSTEM LOSSES GW =           0.0000          SYSTEM LOSSES GW =           0.0000
        SYSTEM LOSSES SW =           0.0000          SYSTEM LOSSES SW =           0.0000

               TOTAL OUT =           0.0000                 TOTAL OUT =           0.0000

                IN - OUT =           0.0000                  IN - OUT =           0.0000

     PERCENT DISCREPANCY =           0.00         PERCENT DISCREPANCY =           0.00



1
              HEAD IN LAYER 1 AT END OF TIME STEP 1 IN STRESS PERIOD 2
  ---------------------------------------------------------------------------

           1       2       3       4       5       6       7       8       9      10
 ...................................................................................
   1  1032.36 1031.32 6999.00 6999.00 6999.00 6999.00 6999.00 6999.00 6999.00 6999.00
   2  1031.40 1030.17 1029.58 6999.00 6999.00 1030.68 1030.83 1030.79 6999.00 6999.00
   3  6999.00 1029.27 1028.96 1028.74 1029.28 1029.91 1030.40 1030.37 6999.00 6999.00
   4  1028.57 1028.53 1028.35 1028.17 1028.24 1028.30 1028.78 1029.83 1029.56 6999.00
   5  1028.13 1027.76 1027.59 1027.51 1027.61 1027.82 1027.99 1028.47 1029.10 1029.63
   6  1027.57 1027.02 1026.83 1026.81 1026.93 1027.26 1027.55 1028.08 1028.52 1029.45
   7  1027.07 1026.08 1025.92 1025.96 1026.14 1026.55 1026.98 1027.45 1027.96 6999.00
   8  6999.00 1024.71 1024.75 1024.91 1025.15 1025.65 1026.08 1026.80 1027.36 6999.00
   9  6999.00 1022.70 1023.03 1023.48 1023.88 1024.53 1025.05 1025.79 1026.91 6999.00
  10  6999.00 1019.87 1020.64 1021.69 1022.47 1023.49 1024.39 1025.46 1027.07 1027.71
  11  6999.00 1015.35 1016.78 1019.32 1020.96 1022.69 1024.22 1026.00 1028.19 6999.00
  12  1001.91 1007.94 1012.08 1016.04 1019.32 1022.30 1024.79 1028.19 1031.18 6999.00
  13   995.56 1000.38 1006.89 1012.87 1018.23 1022.75 1027.05 1031.79 1034.63 6999.00
  14  6999.00 1005.79 1008.88 1013.53 1018.29 1022.70 1027.60 1033.07 1037.48 6999.00
  15  6999.00 6999.00 1012.52 1015.24 1018.71 1021.73 6999.00 6999.00 6999.00 6999.00
1
  VOLUMETRIC BUDGET FOR ENTIRE MODEL AT END OF TIME STEP    1, STRESS PERIOD   2
  ------------------------------------------------------------------------------

     CUMULATIVE VOLUMES      L**3       RATES FOR THIS TIME STEP      L**3/T
     ------------------                 ------------------------

           IN:                                      IN:
           ---                                      ---
             STORAGE     =       66736.4922               STORAGE     =           0.7613
       CONSTANT HEAD     =           0.0000         CONSTANT HEAD     =           0.0000
     HEAD DEP BOUNDS     =       49716.9844       HEAD DEP BOUNDS     =           0.2856
      STREAM LEAKAGE     =     1877049.7500        STREAM LEAKAGE     =          11.2667
        UZF RECHARGE     =       73223.9531          UZF RECHARGE     =           0.0000
               GW ET     =           0.0000                 GW ET     =           0.0000
     SURFACE LEAKAGE     =           0.0000       SURFACE LEAKAGE     =           0.0000
           AG WELLS      =           0.0000             AG WELLS      =           0.0000

                TOTAL IN =     2066727.2500                  TOTAL IN =          12.3136

          OUT:                                     OUT:
          ----                                     ----
             STORAGE     =      159711.2812               STORAGE     =           1.8218
       CONSTANT HEAD     =           0.0000         CONSTANT HEAD     =           0.0000
     HEAD DEP BOUNDS     =       49975.0312       HEAD DEP BOUNDS     =           0.2871
      STREAM LEAKAGE     =     1857066.8750        STREAM LEAKAGE     =          10.2049
        UZF RECHARGE     =           0.0000          UZF RECHARGE     =           0.0000
               GW ET     =           0.0000                 GW ET     =           0.0000
     SURFACE LEAKAGE     =           0.0000       SURFACE LEAKAGE     =           0.0000
           AG WELLS      =           0.0000             AG WELLS      =           0.0000

               TOTAL OUT =     2066753.2500                 TOTAL OUT =          12.3139

                IN - OUT =         -26.0000                  IN - OUT =      -2.9755E-04

     PERCENT DISCREPANCY =          -0.00         PERCENT DISCREPANCY =          -0.00






         TIME SUMMARY AT END OF TIME STEP    1 IN STRESS PERIOD    2
                    SECONDS     MINUTES      HOURS       DAYS        YEARS
                    -----------------------------------------------------------
   TIME STEP LENGTH  87667.      1461.1      24.352      1.0147     2.77799E-03
 STRESS PERIOD TIME  87667.      1461.1      24.352      1.0147     2.77799E-03
         TOTAL TIME 1.74067E+05  2901.1      48.352      2.0147     5.51584E-03
1
 
 SOLVING FOR HEAD 
                                                   Max.-Head-Change                         Max.-Flux-Residual
  Residual-Control   Outer-Iter.   Inner-Iter.     Column Row Layer    Maximum-Head-Change  Column Row Layer    Maximum-Flux-Residual          L2-NORM 
          0                 1           2             2   13     1       0.4141604067E-02       4   13    1         0.2347421644E+00      0.5289478646E+00
          0                 2           2             4   13     1      -0.3943921141E-03       4   13    1        -0.2322508993E-01      0.5195277974E-01
          0                 3           1             4   13     1       0.2644842864E-04       4   13    1         0.1601340582E-02      0.3548358795E-02

    ------------------------------------------------
       NWT REQUIRED            3 OUTER ITERATIONS 
       AND A TOTAL OF          5 INNER ITERATIONS.
    ------------------------------------------------

 NO OUTPUT CONTROL FOR STRESS PERIOD    2   TIME STEP    2
 
 SOLVING FOR HEAD 
                                                   Max.-Head-Change                         Max.-Flux-Residual
  Residual-Control   Outer-Iter.   Inner-Iter.     Column Row Layer    Maximum-Head-Change  Column Row Layer    Maximum-Flux-Residual          L2-NORM 
          0                 1           2             2   13     1       0.3838451722E-02       2   13    1         0.2157898443E+00      0.5018947223E+00
          0                 2           2             4   13     1      -0.3580860464E-03       4   13    1        -0.2107510957E-01      0.4934276730E-01
          0                 3           1             4   13     1       0.2403484716E-04       4   13    1         0.1454379058E-02      0.3375977545E-02

    ------------------------------------------------
       NWT REQUIRED            3 OUTER ITERATIONS 
       AND A TOTAL OF          5 INNER ITERATIONS.
    ------------------------------------------------

 NO OUTPUT CONTROL FOR STRESS PERIOD    2   TIME STEP    3
 
 SOLVING FOR HEAD 
                                                   Max.-Head-Change                         Max.-Flux-Residual
  Residual-Control   Outer-Iter.   Inner-Iter.     Column Row Layer    Maximum-Head-Change  Column Row Layer    Maximum-Flux-Residual          L2-NORM 
          0                 1           2             2   13     1       0.3557559587E-02       2   13    1         0.1999768401E+00      0.4775469808E+00
          0                 2           2             2   13     1      -0.3313317856E-03       2   13    1        -0.1914529669E-01      0.4698879784E-01
          0                 3           1             4   13     1       0.2180721347E-04       4   13    1         0.1318793073E-02      0.3217700760E-02

    ------------------------------------------------
       NWT REQUIRED            3 OUTER ITERATIONS 
       AND A TOTAL OF          5 INNER ITERATIONS.
    ------------------------------------------------

 NO OUTPUT CONTROL FOR STRESS PERIOD    2   TIME STEP    4
 
 SOLVING FOR HEAD 
                                                   Max.-Head-Change                         Max.-Flux-Residual
  Residual-Control   Outer-Iter.   Inner-Iter.     Column Row Layer    Maximum-Head-Change  Column Row Layer    Maximum-Flux-Residual          L2-NORM 
          0                 1           2             2   13     1       0.3297604685E-02       2   13    1         0.1853435845E+00      0.4556415430E+00
          0                 2           2             2    2     1      -0.3075700726E-03       2   13    1        -0.1774964558E-01      0.4487548817E-01
          0                 3           1             2    2     1       0.2094437751E-04       4   13    1         0.1198174047E-02      0.3076929403E-02

    ------------------------------------------------
       NWT REQUIRED            3 OUTER ITERATIONS 
       AND A TOTAL OF          5 INNER ITERATIONS.
    ------------------------------------------------

 NO OUTPUT CONTROL FOR STRESS PERIOD    2   TIME STEP    5
 
 SOLVING FOR HEAD 
                                                   Max.-Head-Change                         Max.-Flux-Residual
  Residual-Control   Outer-Iter.   Inner-Iter.     Column Row Layer    Maximum-Head-Change  Column Row Layer    Maximum-Flux-Residual          L2-NORM 
          0                 1           2             2    2     1       0.3137740412E-02       2   13    1         0.1717992485E+00      0.4359362745E+00
          0                 2           2             2    2     1      -0.3052170142E-03       2   13    1        -0.1645865069E-01      0.4297630026E-01
          0                 3           1             2    2     1       0.2078414308E-04       2    2    1         0.1148336413E-02      0.2950597531E-02

    ------------------------------------------------
       NWT REQUIRED            3 OUTER ITERATIONS 
       AND A TOTAL OF          5 INNER ITERATIONS.
    ------------------------------------------------

 NO OUTPUT CONTROL FOR STRESS PERIOD    2   TIME STEP    6
 
 SOLVING FOR HEAD 
                                                   Max.-Head-Change                         Max.-Flux-Residual
  Residual-Control   Outer-Iter.   Inner-Iter.     Column Row Layer    Maximum-Head-Change  Column Row Layer    Maximum-Flux-Residual          L2-NORM 
          0                 1           2             2    2     1       0.3113901219E-02       2    2    1         0.1627934591E+00      0.4182063023E+00
          0                 2           2             2    2     1      -0.3028981017E-03       2    2    1        -0.1627937418E-01      0.4126813743E-01
          0                 3           1             2    2     1       0.2062623349E-04       2    2    1         0.1139556415E-02      0.2837809020E-02

    ------------------------------------------------
       NWT REQUIRED            3 OUTER ITERATIONS 
       AND A TOTAL OF          5 INNER ITERATIONS.
    ------------------------------------------------

 NO OUTPUT CONTROL FOR STRESS PERIOD    2   TIME STEP    7
 
 SOLVING FOR HEAD 
                                                   Max.-Head-Change                         Max.-Flux-Residual
  Residual-Control   Outer-Iter.   Inner-Iter.     Column Row Layer    Maximum-Head-Change  Column Row Layer    Maximum-Flux-Residual          L2-NORM 
          0                 1           2             2    2     1       0.3090495551E-02       2    2    1         0.1615619536E+00      0.4022459845E+00
          0                 2           2             2    2     1      -0.3006213598E-03       2    2    1        -0.1615622306E-01      0.3973071059E-01
          0                 3           1             2    2     1       0.2047119617E-04       2    2    1         0.1130935852E-02      0.2735708798E-02

    ------------------------------------------------
       NWT REQUIRED            3 OUTER ITERATIONS 
       AND A TOTAL OF          5 INNER ITERATIONS.
    ------------------------------------------------

 NO OUTPUT CONTROL FOR STRESS PERIOD    2   TIME STEP    8
 
 SOLVING FOR HEAD 
                                                   Max.-Head-Change                         Max.-Flux-Residual
  Residual-Control   Outer-Iter.   Inner-Iter.     Column Row Layer    Maximum-Head-Change  Column Row Layer    Maximum-Flux-Residual          L2-NORM 
          0                 1           2             2    2     1       0.3067343233E-02       2    2    1         0.1603438620E+00      0.3878711226E+00
          0                 2           2             2    2     1      -0.2983692623E-03       2    2    1        -0.1603441335E-01      0.3834542087E-01
          0                 3           1             2    2     1       0.2031783686E-04       2    2    1         0.1122409173E-02      0.2642671797E-02

    ------------------------------------------------
       NWT REQUIRED            3 OUTER ITERATIONS 
       AND A TOTAL OF          5 INNER ITERATIONS.
    ------------------------------------------------

 NO OUTPUT CONTROL FOR STRESS PERIOD    2   TIME STEP    9
 
 SOLVING FOR HEAD 
                                                   Max.-Head-Change                         Max.-Flux-Residual
  Residual-Control   Outer-Iter.   Inner-Iter.     Column Row Layer    Maximum-Head-Change  Column Row Layer    Maximum-Flux-Residual          L2-NORM 
          0                 1           2             2    2     1       0.3044526459E-02       2    2    1         0.1591434383E+00      0.3749194505E+00
          0                 2           2             2    2     1      -0.2961498038E-03       2    2    1        -0.1591437041E-01      0.3709815521E-01
          0                 3           1             2    2     1       0.2016669991E-04       2    2    1         0.1114006163E-02      0.2560264876E-02

    ------------------------------------------------
       NWT REQUIRED            3 OUTER ITERATIONS 
       AND A TOTAL OF          5 INNER ITERATIONS.
    ------------------------------------------------

 NO OUTPUT CONTROL FOR STRESS PERIOD    2   TIME STEP   10
 
 SOLVING FOR HEAD 
                                                   Max.-Head-Change                         Max.-Flux-Residual
  Residual-Control   Outer-Iter.   Inner-Iter.     Column Row Layer    Maximum-Head-Change  Column Row Layer    Maximum-Flux-Residual          L2-NORM 
          0                 1           2             2    2     1       0.3021953028E-02       2    2    1         0.1579558800E+00      0.3632348403E+00
          0                 2           2             2    2     1      -0.2939540159E-03       2    2    1        -0.1579561404E-01      0.3597264143E-01
          0                 3           1             2    2     1       0.2001717447E-04       2    2    1         0.1105693200E-02      0.2485321935E-02

    ------------------------------------------------
       NWT REQUIRED            3 OUTER ITERATIONS 
       AND A TOTAL OF          5 INNER ITERATIONS.
    ------------------------------------------------

 NO OUTPUT CONTROL FOR STRESS PERIOD    2   TIME STEP   11
 
 SOLVING FOR HEAD 
                                                   Max.-Head-Change                         Max.-Flux-Residual
  Residual-Control   Outer-Iter.   Inner-Iter.     Column Row Layer    Maximum-Head-Change  Column Row Layer    Maximum-Flux-Residual          L2-NORM 
          0                 1           2             2    2     1       0.2999790039E-02       2    2    1         0.1567898805E+00      0.3526755102E+00
          0                 2           2             2    2     1      -0.2917981541E-03       2    2    1        -0.1567901358E-01      0.3495648231E-01
          0                 3           1             2    2     1       0.1987036864E-04       2    2    1         0.1097531184E-02      0.2417810200E-02

    ------------------------------------------------
       NWT REQUIRED            3 OUTER ITERATIONS 
       AND A TOTAL OF          5 INNER ITERATIONS.
    ------------------------------------------------

 NO OUTPUT CONTROL FOR STRESS PERIOD    2   TIME STEP   12
 
 SOLVING FOR HEAD 
                                                   Max.-Head-Change                         Max.-Flux-Residual
  Residual-Control   Outer-Iter.   Inner-Iter.     Column Row Layer    Maximum-Head-Change  Column Row Layer    Maximum-Flux-Residual          L2-NORM 
          0                 1           2             2    2     1       0.2977861985E-02       2    2    1         0.1556363428E+00      0.3431290732E+00
          0                 2           2             2    2     1      -0.2896651447E-03       2    2    1        -0.1556365931E-01      0.3403420194E-01
          0                 3           1             2    2     1       0.1972511894E-04       2    2    1         0.1089456382E-02      0.2356634596E-02

    ------------------------------------------------
       NWT REQUIRED            3 OUTER ITERATIONS 
       AND A TOTAL OF          5 INNER ITERATIONS.
    ------------------------------------------------

 NO OUTPUT CONTROL FOR STRESS PERIOD    2   TIME STEP   13
 
 SOLVING FOR HEAD 
                                                   Max.-Head-Change                         Max.-Flux-Residual
  Residual-Control   Outer-Iter.   Inner-Iter.     Column Row Layer    Maximum-Head-Change  Column Row Layer    Maximum-Flux-Residual          L2-NORM 
          0                 1           2             2    2     1       0.2956249451E-02       2    2    1         0.1544993958E+00      0.3344812589E+00
          0                 2           2             2    2     1      -0.2875628271E-03       2    2    1        -0.1544996412E-01      0.3320172279E-01
          0                 3           1             2    2     1       0.1958195883E-04       2    2    1         0.1081497722E-02      0.2301493628E-02

    ------------------------------------------------
       NWT REQUIRED            3 OUTER ITERATIONS 
       AND A TOTAL OF          5 INNER ITERATIONS.
    ------------------------------------------------

 NO OUTPUT CONTROL FOR STRESS PERIOD    2   TIME STEP   14
 
 SOLVING FOR HEAD 
                                                   Max.-Head-Change                         Max.-Flux-Residual
  Residual-Control   Outer-Iter.   Inner-Iter.     Column Row Layer    Maximum-Head-Change  Column Row Layer    Maximum-Flux-Residual          L2-NORM 
          0                 1           2             2    2     1       0.2934946924E-02       2    2    1         0.1533788083E+00      0.3266290391E+00
          0                 2           2             2    2     1      -0.2854906645E-03       2    2    1        -0.1533790486E-01      0.3244578659E-01
          0                 3           1             2    2     1       0.1944085210E-04       2    2    1         0.1073653580E-02      0.2253271663E-02

    ------------------------------------------------
       NWT REQUIRED            3 OUTER ITERATIONS 
       AND A TOTAL OF          5 INNER ITERATIONS.
    ------------------------------------------------

 NO OUTPUT CONTROL FOR STRESS PERIOD    2   TIME STEP   15
 
 SOLVING FOR HEAD 
                                                   Max.-Head-Change                         Max.-Flux-Residual
  Residual-Control   Outer-Iter.   Inner-Iter.     Column Row Layer    Maximum-Head-Change  Column Row Layer    Maximum-Flux-Residual          L2-NORM 
          0                 1           2             2    2     1       0.2913949701E-02       2    2    1         0.1522742942E+00      0.3194883970E+00
          0                 2           2             2    2     1      -0.2834482001E-03       2    2    1        -0.1522745299E-01      0.3175458754E-01
          0                 3           1             2    2     1       0.1930176821E-04       2    2    1         0.1065921939E-02      0.2202108134E-02

    ------------------------------------------------
       NWT REQUIRED            3 OUTER ITERATIONS 
       AND A TOTAL OF          5 INNER ITERATIONS.
    ------------------------------------------------

 NO OUTPUT CONTROL FOR STRESS PERIOD    2   TIME STEP   16
 
 SOLVING FOR HEAD 
                                                   Max.-Head-Change                         Max.-Flux-Residual
  Residual-Control   Outer-Iter.   Inner-Iter.     Column Row Layer    Maximum-Head-Change  Column Row Layer    Maximum-Flux-Residual          L2-NORM 
          0                 1           2             2    2     1       0.2893252802E-02       2    2    1         0.1511856099E+00      0.3129773638E+00
          0                 2           2             2    2     1      -0.2814349494E-03       2    2    1        -0.1511858410E-01      0.3112425761E-01
          0                 3           1             2    2     1       0.1916467332E-04       2    2    1         0.1058301126E-02      0.2162372807E-02

    ------------------------------------------------
       NWT REQUIRED            3 OUTER ITERATIONS 
       AND A TOTAL OF          5 INNER ITERATIONS.
    ------------------------------------------------

 NO OUTPUT CONTROL FOR STRESS PERIOD    2   TIME STEP   17
 
 SOLVING FOR HEAD 
                                                   Max.-Head-Change                         Max.-Flux-Residual
  Residual-Control   Outer-Iter.   Inner-Iter.     Column Row Layer    Maximum-Head-Change  Column Row Layer    Maximum-Flux-Residual          L2-NORM 
          0                 1           2             2    2     1       0.2872764618E-02       2    2    1         0.1501079641E+00      0.3070291294E+00
          0                 2           2             2    2     1      -0.2794420010E-03       2    2    1        -0.1501081909E-01      0.3054880097E-01
          0                 3           1             2    2     1       0.1902896085E-04       2    2    1         0.1050757575E-02      0.2123802106E-02

    ------------------------------------------------
       NWT REQUIRED            3 OUTER ITERATIONS 
       AND A TOTAL OF          5 INNER ITERATIONS.
    ------------------------------------------------

 NO OUTPUT CONTROL FOR STRESS PERIOD    2   TIME STEP   18
 
 SOLVING FOR HEAD 
                                                   Max.-Head-Change                         Max.-Flux-Residual
  Residual-Control   Outer-Iter.   Inner-Iter.     Column Row Layer    Maximum-Head-Change  Column Row Layer    Maximum-Flux-Residual          L2-NORM 
          0                 1           2             2    2     1       0.2852655220E-02       2    2    1         0.1490502058E+00      0.3015797110E+00
          0                 2           2             2    2     1      -0.2774858982E-03       2    2    1        -0.1490504280E-01      0.3002118470E-01
          0                 3           1             2    2     1       0.1889575781E-04       2    2    1         0.1043353232E-02      0.2088771625E-02

    ------------------------------------------------
       NWT REQUIRED            3 OUTER ITERATIONS 
       AND A TOTAL OF          5 INNER ITERATIONS.
    ------------------------------------------------

 NO OUTPUT CONTROL FOR STRESS PERIOD    2   TIME STEP   19
 
 SOLVING FOR HEAD 
                                                   Max.-Head-Change                         Max.-Flux-Residual
  Residual-Control   Outer-Iter.   Inner-Iter.     Column Row Layer    Maximum-Head-Change  Column Row Layer    Maximum-Flux-Residual          L2-NORM 
          0                 1           2             2    2     1       0.2832744979E-02       2    2    1         0.1480030213E+00      0.2965743403E+00
          0                 2           2             2    2     1      -0.2755491682E-03       2    2    1        -0.1480032393E-01      0.2953617810E-01
          0                 3           1             2    2     1       0.1876387376E-04       2    2    1         0.1036022913E-02      0.2056254546E-02

    ------------------------------------------------
       NWT REQUIRED            3 OUTER ITERATIONS 
       AND A TOTAL OF          5 INNER ITERATIONS.
    ------------------------------------------------

 NO OUTPUT CONTROL FOR STRESS PERIOD    2   TIME STEP   20
 
 SOLVING FOR HEAD 
                                                   Max.-Head-Change                         Max.-Flux-Residual
  Residual-Control   Outer-Iter.   Inner-Iter.     Column Row Layer    Maximum-Head-Change  Column Row Layer    Maximum-Flux-Residual          L2-NORM 
          0                 1           2             2    2     1       0.2813117412E-02       2    2    1         0.1469706957E+00      0.2919606691E+00
          0                 2           2             2    2     1      -0.2736399349E-03       2    2    1        -0.1469709095E-01      0.2908721195E-01
          0                 3           1             2    2     1       0.1863386204E-04       2    2    1         0.1028796608E-02      0.2025392134E-02

    ------------------------------------------------
       NWT REQUIRED            3 OUTER ITERATIONS 
       AND A TOTAL OF          5 INNER ITERATIONS.
    ------------------------------------------------

 NO OUTPUT CONTROL FOR STRESS PERIOD    2   TIME STEP   21
 
 SOLVING FOR HEAD 
                                                   Max.-Head-Change                         Max.-Flux-Residual
  Residual-Control   Outer-Iter.   Inner-Iter.     Column Row Layer    Maximum-Head-Change  Column Row Layer    Maximum-Flux-Residual          L2-NORM 
          0                 1           2             2    2     1       0.2793767597E-02       2    2    1         0.1459530265E+00      0.2876717450E+00
          0                 2           2             2    2     1      -0.2717577197E-03       2    2    1        -0.1459532363E-01      0.2864800425E-01
          0                 3           1             2    2     1       0.1850569044E-04       2    2    1         0.1021672912E-02      0.1996967620E-02

    ------------------------------------------------
       NWT REQUIRED            3 OUTER ITERATIONS 
       AND A TOTAL OF          5 INNER ITERATIONS.
    ------------------------------------------------

 NO OUTPUT CONTROL FOR STRESS PERIOD    2   TIME STEP   22
 
 SOLVING FOR HEAD 
                                                   Max.-Head-Change                         Max.-Flux-Residual
  Residual-Control   Outer-Iter.   Inner-Iter.     Column Row Layer    Maximum-Head-Change  Column Row Layer    Maximum-Flux-Residual          L2-NORM 
          0                 1           2             2    2     1       0.2774691381E-02       2    2    1         0.1449497585E+00      0.2837507840E+00
          0                 2           2             2    2     1      -0.2699021179E-03       2    2    1        -0.1449499642E-01      0.2829013869E-01
          0                 3           1             2    2     1       0.1837933082E-04       2    2    1         0.1014650006E-02      0.1972719293E-02

    ------------------------------------------------
       NWT REQUIRED            3 OUTER ITERATIONS 
       AND A TOTAL OF          5 INNER ITERATIONS.
    ------------------------------------------------

 NO OUTPUT CONTROL FOR STRESS PERIOD    2   TIME STEP   23
 
 SOLVING FOR HEAD 
                                                   Max.-Head-Change                         Max.-Flux-Residual
  Residual-Control   Outer-Iter.   Inner-Iter.     Column Row Layer    Maximum-Head-Change  Column Row Layer    Maximum-Flux-Residual          L2-NORM 
          0                 1           2             2    2     1       0.2755889406E-02       2    2    1         0.1439609219E+00      0.2800863817E+00
          0                 2           2             2    2     1      -0.2680731924E-03       2    2    1        -0.1439611239E-01      0.2793275682E-01
          0                 3           1             2    2     1       0.1825478743E-04       2    2    1         0.1007728093E-02      0.1948629738E-02

    ------------------------------------------------
       NWT REQUIRED            3 OUTER ITERATIONS 
       AND A TOTAL OF          5 INNER ITERATIONS.
    ------------------------------------------------

 NO OUTPUT CONTROL FOR STRESS PERIOD    2   TIME STEP   24
 
 SOLVING FOR HEAD 
                                                   Max.-Head-Change                         Max.-Flux-Residual
  Residual-Control   Outer-Iter.   Inner-Iter.     Column Row Layer    Maximum-Head-Change  Column Row Layer    Maximum-Flux-Residual          L2-NORM 
          0                 1           2             2    2     1       0.2737260761E-02       2    2    1         0.1429812797E+00      0.2766706518E+00
          0                 2           2             2    2     1      -0.2662611273E-03       2    2    1        -0.1429814778E-01      0.2759995882E-01
          0                 3           1             2    2     1       0.1813139261E-04       2    2    1         0.1000870577E-02      0.1925853957E-02

    ------------------------------------------------
       NWT REQUIRED            3 OUTER ITERATIONS 
       AND A TOTAL OF          5 INNER ITERATIONS.
    ------------------------------------------------

 NO OUTPUT CONTROL FOR STRESS PERIOD    2   TIME STEP   25
 
 SOLVING FOR HEAD 
                                                   Max.-Head-Change                         Max.-Flux-Residual
  Residual-Control   Outer-Iter.   Inner-Iter.     Column Row Layer    Maximum-Head-Change  Column Row Layer    Maximum-Flux-Residual          L2-NORM 
          0                 1           2             2    2     1       0.2718980085E-02       2    2    1         0.1420199372E+00      0.2734814448E+00
          0                 2           2             2    2     1      -0.2644829109E-03       2    2    1        -0.1420201317E-01      0.2728806241E-01
          0                 3           1             2    2     1       0.1801030323E-04       2    2    1         0.9941411768E-03      0.1904250751E-02

    ------------------------------------------------
       NWT REQUIRED            3 OUTER ITERATIONS 
       AND A TOTAL OF          5 INNER ITERATIONS.
    ------------------------------------------------

 NO OUTPUT CONTROL FOR STRESS PERIOD    2   TIME STEP   26
 
 SOLVING FOR HEAD 
                                                   Max.-Head-Change                         Max.-Flux-Residual
  Residual-Control   Outer-Iter.   Inner-Iter.     Column Row Layer    Maximum-Head-Change  Column Row Layer    Maximum-Flux-Residual          L2-NORM 
          0                 1           2             2    2     1       0.2700869381E-02       2    2    1         0.1410675692E+00      0.2704895739E+00
          0                 2           2             2    2     1      -0.2627212273E-03       2    2    1        -0.1410677599E-01      0.2699573848E-01
          0                 3           1             2    2     1       0.1789033852E-04       2    2    1         0.9874745567E-03      0.1885295107E-02

    ------------------------------------------------
       NWT REQUIRED            3 OUTER ITERATIONS 
       AND A TOTAL OF          5 INNER ITERATIONS.
    ------------------------------------------------

 NO OUTPUT CONTROL FOR STRESS PERIOD    2   TIME STEP   27
 
 SOLVING FOR HEAD 
                                                   Max.-Head-Change                         Max.-Flux-Residual
  Residual-Control   Outer-Iter.   Inner-Iter.     Column Row Layer    Maximum-Head-Change  Column Row Layer    Maximum-Flux-Residual          L2-NORM 
          0                 1           2             2    2     1       0.2683012307E-02       2    2    1         0.1401285478E+00      0.2676806483E+00
          0                 2           2             2    2     1      -0.2609842159E-03       2    2    1        -0.1401287351E-01      0.2672002674E-01
          0                 3           1             2    2     1       0.1777205489E-04       2    2    1         0.9809013885E-03      0.1865495041E-02

    ------------------------------------------------
       NWT REQUIRED            3 OUTER ITERATIONS 
       AND A TOTAL OF          5 INNER ITERATIONS.
    ------------------------------------------------

 NO OUTPUT CONTROL FOR STRESS PERIOD    2   TIME STEP   28
 
 SOLVING FOR HEAD 
                                                   Max.-Head-Change                         Max.-Flux-Residual
  Residual-Control   Outer-Iter.   Inner-Iter.     Column Row Layer    Maximum-Head-Change  Column Row Layer    Maximum-Flux-Residual          L2-NORM 
          0                 1           2             2    2     1       0.2665404407E-02       2    2    1         0.1392026767E+00      0.2650364101E+00
          0                 2           2             2    2     1      -0.2592714421E-03       2    2    1        -0.1392028606E-01      0.2646096208E-01
          0                 3           1             2    2     1       0.1765542112E-04       2    2    1         0.9744202535E-03      0.1848266191E-02

    ------------------------------------------------
       NWT REQUIRED            3 OUTER ITERATIONS 
       AND A TOTAL OF          5 INNER ITERATIONS.
    ------------------------------------------------

 NO OUTPUT CONTROL FOR STRESS PERIOD    2   TIME STEP   29
 
 SOLVING FOR HEAD 
                                                   Max.-Head-Change                         Max.-Flux-Residual
  Residual-Control   Outer-Iter.   Inner-Iter.     Column Row Layer    Maximum-Head-Change  Column Row Layer    Maximum-Flux-Residual          L2-NORM 
          0                 1           2             2    2     1       0.2648042040E-02       2    2    1         0.1382897251E+00      0.2625375411E+00
          0                 2           2             2    2     1      -0.2575825525E-03       2    2    1        -0.1382899057E-01      0.2621546360E-01
          0                 3           1             2    2     1       0.1754041401E-04       2    2    1         0.9680295867E-03      0.1831743696E-02

    ------------------------------------------------
       NWT REQUIRED            3 OUTER ITERATIONS 
       AND A TOTAL OF          5 INNER ITERATIONS.
    ------------------------------------------------

 NO OUTPUT CONTROL FOR STRESS PERIOD    2   TIME STEP   30



 STREAM LISTING     PERIOD      2   STEP       30

 LAYER ROW COL. STREAM  RCH.  FLOW INTO     FLOW TO   FLOW OUT OF   OVRLND.     DIRECT     STREAM       STREAM     STREAM     STREAM   STREAMBED  STREAMBED
                SEG.NO.  NO.  STRM. RCH.    AQUIFER    STRM. RCH.    RUNOFF     PRECIP       ET          HEAD       DEPTH      WIDTH   CONDCTNC.   GRADIENT

   1    1    1     1     1    1.6500E+01  1.9759E-01   1.6302E+01  0.000E+00  0.000E+00  0.000E+00  1.09409E+03  1.039E+00  1.087E+01  4.893E-02  1.346E+00
   1    2    2     1     2    1.6302E+01  3.0466E-01   1.5998E+01  0.000E+00  0.000E+00  0.000E+00  1.08909E+03  1.034E+00  1.079E+01  7.552E-02  1.345E+00
   1    3    3     1     3    1.5998E+01  2.5853E-01   1.5739E+01  0.000E+00  0.000E+00  0.000E+00  1.08345E+03  1.029E+00  1.070E+01  6.417E-02  1.343E+00
   1    3    4     1     4    1.5739E+01  2.3700E-01   1.5502E+01  0.000E+00  0.000E+00  0.000E+00  1.07843E+03  1.024E+00  1.061E+01  5.889E-02  1.341E+00
   1    4    5     2     1    1.3502E+01  2.9865E-01   1.3204E+01  0.000E+00  0.000E+00  0.000E+00  1.07276E+03  8.289E-01  1.200E+01  7.800E-02  1.276E+00
   1    5    6     2     2    1.3204E+01  2.2914E-01   1.2974E+01  0.000E+00  0.000E+00  0.000E+00  1.06733E+03  8.190E-01  1.200E+01  6.000E-02  1.273E+00
   1    6    6     2     3    1.2974E+01  2.2862E-01   1.2746E+01  0.000E+00  0.000E+00  0.000E+00  1.06260E+03  8.104E-01  1.200E+01  6.000E-02  1.270E+00
   1    7    6     2     4    1.2746E+01  2.2810E-01   1.2518E+01  0.000E+00  0.000E+00  0.000E+00  1.05788E+03  8.017E-01  1.200E+01  6.000E-02  1.267E+00
   1    8    6     2     5    1.2518E+01  2.2758E-01   1.2290E+01  0.000E+00  0.000E+00  0.000E+00  1.05315E+03  7.930E-01  1.200E+01  6.000E-02  1.264E+00
   1    3    5     3     1    2.0000E+00  2.8252E-01   1.7175E+00  0.000E+00  0.000E+00  0.000E+00  1.07555E+03  1.909E+00  9.636E+00  7.227E-02  1.955E+00
   1    3    6     3     2    1.7175E+00  2.4905E-01   1.4684E+00  0.000E+00  0.000E+00  0.000E+00  1.07264E+03  1.727E+00  8.909E+00  6.682E-02  1.864E+00
   1    3    7     3     3    1.4684E+00  1.9718E-01   1.2712E+00  0.000E+00  0.000E+00  0.000E+00  1.06987E+03  1.555E+00  8.218E+00  5.547E-02  1.777E+00
   1    4    8     3     4    1.2712E+00  2.2567E-01   1.0456E+00  0.000E+00  0.000E+00  0.000E+00  1.06682E+03  1.364E+00  7.455E+00  6.709E-02  1.682E+00
   1    5    8     3     5    1.0456E+00  1.5790E-01   8.8768E-01  0.000E+00  0.000E+00  0.000E+00  1.06362E+03  1.164E+00  6.655E+00  4.991E-02  1.582E+00
   1    6    8     3     6    8.8768E-01  5.5980E-02   8.3170E-01  0.000E+00  0.000E+00  0.000E+00  1.06158E+03  1.036E+00  6.145E+00  1.844E-02  1.518E+00
   1    5   10     4     1    1.0000E+01  9.0919E-02   9.9091E+00  0.000E+00  0.000E+00  0.000E+00  1.07836E+03  6.368E-01  1.000E+01  2.500E-02  1.212E+00
   1    5    9     4     2    9.9091E+00  1.8158E-01   9.7275E+00  0.000E+00  0.000E+00  0.000E+00  1.07154E+03  6.315E-01  1.000E+01  5.000E-02  1.211E+00
   1    6    8     4     3    9.7275E+00  1.2689E-01   9.6006E+00  0.000E+00  0.000E+00  0.000E+00  1.06381E+03  6.256E-01  1.000E+01  3.500E-02  1.209E+00
   1    6    8     5     1    1.0432E+01  2.2686E-01   1.0205E+01  0.000E+00  0.000E+00  0.000E+00  1.05868E+03  6.790E-01  1.542E+01  6.166E-02  1.226E+00
   1    7    7     5     2    1.0205E+01  2.7894E-01   9.9265E+00  0.000E+00  0.000E+00  0.000E+00  1.05417E+03  6.732E-01  1.519E+01  7.594E-02  1.224E+00
   1    8    7     5     3    9.9265E+00  1.9221E-01   9.7343E+00  0.000E+00  0.000E+00  0.000E+00  1.04992E+03  6.676E-01  1.497E+01  5.241E-02  1.223E+00
   1    8    6     5     4    9.7343E+00  1.3577E-01   9.5985E+00  0.000E+00  0.000E+00  0.000E+00  1.04691E+03  6.637E-01  1.482E+01  3.706E-02  1.221E+00
   1    9    6     6     1    2.1889E+01  2.4742E-01   2.1641E+01  0.000E+00  0.000E+00  0.000E+00  1.04385E+03  1.124E+00  1.200E+01  6.000E-02  1.375E+00
   1   10    7     6     2    2.1641E+01  2.4696E-01   2.1394E+01  0.000E+00  0.000E+00  0.000E+00  1.03930E+03  1.116E+00  1.200E+01  6.000E-02  1.372E+00
   1   11    7     6     3    2.1394E+01  2.4650E-01   2.1148E+01  0.000E+00  0.000E+00  0.000E+00  1.03474E+03  1.108E+00  1.200E+01  6.000E-02  1.369E+00
   1   12    7     6     4    2.1148E+01  2.4603E-01   2.0902E+01  0.000E+00  0.000E+00  0.000E+00  1.03019E+03  1.101E+00  1.200E+01  6.000E-02  1.367E+00
   1   13    7     6     5    2.0902E+01 -1.7643E-02   2.0919E+01  0.000E+00  0.000E+00  0.000E+00  1.02701E+03  1.097E+00  1.200E+01  2.400E-01 -2.450E-02
   1   14    9     7     1    1.5000E+02  1.3345E+00   1.4867E+02  0.000E+00  0.000E+00  0.000E+00  1.03987E+03  2.288E+00  5.529E+01  5.593E-01  7.953E-01
   1   13    8     7     2    1.4867E+02  1.8340E+00   1.4683E+02  0.000E+00  0.000E+00  0.000E+00  1.03478E+03  2.279E+00  5.526E+01  6.148E-01  9.944E-01
   1   13    7     7     3    1.4683E+02  1.4577E+00   1.4537E+02  0.000E+00  0.000E+00  0.000E+00  1.02969E+03  2.271E+00  5.522E+01  5.585E-01  8.701E-01
   1   13    6     8     1    1.6629E+02  8.7801E-01   1.6542E+02  0.000E+00  0.000E+00  0.000E+00  1.02480E+03  2.925E+00  4.241E+01  4.322E-01  6.772E-01
   1   13    5     8     2    1.6542E+02  1.3043E-01   1.6528E+02  0.000E+00  0.000E+00  0.000E+00  1.01855E+03  2.922E+00  4.236E+01  4.317E-01  1.007E-01
   1   13    4     8     3    1.6528E+02 -2.6018E+00   1.6789E+02  0.000E+00  0.000E+00  0.000E+00  1.01230E+03  2.930E+00  4.248E+01  4.329E+00 -2.003E-01
   1   13    3     8     4    1.6789E+02 -3.7076E+00   1.7159E+02  0.000E+00  0.000E+00  0.000E+00  1.00608E+03  2.951E+00  4.278E+01  4.360E+00 -2.835E-01
   1   13    2     8     5    1.7159E+02 -2.5608E+00   1.7416E+02  0.000E+00  0.000E+00  0.000E+00  9.99846E+02  2.971E+00  4.308E+01  4.390E+00 -1.945E-01
   1   13    1     8     6    1.7416E+02 -1.9439E+00   1.7610E+02  0.000E+00  0.000E+00  0.000E+00  9.94860E+02  2.985E+00  4.329E+01  2.647E+00 -2.448E-01
   1    8    6     9     1    0.0000E+00  0.0000E+00   0.0000E+00  0.000E+00  0.000E+00  0.000E+00  1.07875E+03  0.000E+00  4.000E+00  0.000E+00  1.000E+00
   1    8    5     9     2    0.0000E+00  0.0000E+00   0.0000E+00  0.000E+00  0.000E+00  0.000E+00  1.07825E+03  0.000E+00  4.000E+00  0.000E+00  1.000E+00





UNSATURATED ZONE PACKAGE VOLUMETRIC BUDGET FOR  TIME STEP    30 STRESS PERIOD    2
  ------------------------------------------------------------------------------



     CUMULATIVE VOLUMES      L**3       RATES FOR THIS TIME STEP      L**3/T
     ------------------                 ------------------------

           IN:                                      IN:
           ---                                      ---
        INFILTRATION =     2302148.8727          INFILTRATION =           0.8475

          OUT:                                     OUT:
          ----                                     ----
              UZF ET =     1972485.7128                UZF ET =           0.7500
        UZF RECHARGE =       73224.0000          UZF RECHARGE =       0.0000E+00

            IN - OUT =      256439.1600              IN - OUT =       9.7500E-02

          STORAGE:                                 STORAGE:
          --------                                 --------
      STORAGE CHANGE =      256439.1819        STORAGE CHANGE =       9.7500E-02

 PERCENT DISCREPANCY IS DIFFERENCE BETWEEN IN-OUT MINUS CHANGE IN STORAGE
 DIVIDED BY THE AVERAGE OF IN AND OUT TIMES 100

 PERCENT DISCREPANCY =          -0.00     PERCENT DISCREPANCY =           0.00






1
  VOLUMETRIC BUDGET FOR AGRICULTURAL FIELDS AT  END OF TIME STEP   30, STRESS PERIOD   2
  ------------------------------------------------------------------------------

     CUMULATIVE VOLUMES      L**3       RATES FOR THIS TIME STEP      L**3/T
     ------------------                 ------------------------

           IN:                                      IN:
           ---                                      ---
               AG WELLS  =           0.0000                 AG WELLS  =           0.0000
      DIVERSION SEGMENTS =           0.0000        DIVERSION SEGMENTS =           0.0000
       IRRIGATION PONDS  =           0.0000         IRRIGATION PONDS  =           0.0000
           GW IRRIGATION =           0.0000             GW IRRIGATION =           0.0000
           SW IRRIGATION =           0.0000             SW IRRIGATION =           0.0000
        SYSTEM LOSSES GW =           0.0000          SYSTEM LOSSES GW =           0.0000
        SYSTEM LOSSES SW =           0.0000          SYSTEM LOSSES SW =           0.0000

                TOTAL IN =           0.0000                  TOTAL IN =           0.0000

          OUT:                                     OUT:
          ----                                     ----
               AG WELLS  =           0.0000                 AG WELLS  =           0.0000
      DIVERSION SEGMENTS =           0.0000        DIVERSION SEGMENTS =           0.0000
       IRRIGATION PONDS  =           0.0000         IRRIGATION PONDS  =           0.0000
           GW IRRIGATION =           0.0000             GW IRRIGATION =           0.0000
           SW IRRIGATION =           0.0000             SW IRRIGATION =           0.0000
        SYSTEM LOSSES GW =           0.0000          SYSTEM LOSSES GW =           0.0000
        SYSTEM LOSSES SW =           0.0000          SYSTEM LOSSES SW =           0.0000

               TOTAL OUT =           0.0000                 TOTAL OUT =           0.0000

                IN - OUT =           0.0000                  IN - OUT =           0.0000

     PERCENT DISCREPANCY =           0.00         PERCENT DISCREPANCY =           0.00



1
  VOLUMETRIC BUDGET FOR ENTIRE MODEL AT END OF TIME STEP   30, STRESS PERIOD   2
  ------------------------------------------------------------------------------

     CUMULATIVE VOLUMES      L**3       RATES FOR THIS TIME STEP      L**3/T
     ------------------                 ------------------------

           IN:                                      IN:
           ---                                      ---
             STORAGE     =     1717157.7500               STORAGE     =           0.5919
       CONSTANT HEAD     =           0.0000         CONSTANT HEAD     =           0.0000
     HEAD DEP BOUNDS     =      775921.8750       HEAD DEP BOUNDS     =           0.2857
      STREAM LEAKAGE     =    30472192.0000        STREAM LEAKAGE     =          11.2329
        UZF RECHARGE     =       73223.9531          UZF RECHARGE     =           0.0000
               GW ET     =           0.0000                 GW ET     =           0.0000
     SURFACE LEAKAGE     =           0.0000       SURFACE LEAKAGE     =           0.0000
           AG WELLS      =           0.0000             AG WELLS      =           0.0000

                TOTAL IN =    33038496.0000                  TOTAL IN =          12.1105

          OUT:                                     OUT:
          ----                                     ----
             STORAGE     =     3367968.7500               STORAGE     =           0.9902
       CONSTANT HEAD     =           0.0000         CONSTANT HEAD     =           0.0000
     HEAD DEP BOUNDS     =      782284.1250       HEAD DEP BOUNDS     =           0.2886
      STREAM LEAKAGE     =    28888704.0000        STREAM LEAKAGE     =          10.8318
        UZF RECHARGE     =           0.0000          UZF RECHARGE     =           0.0000
               GW ET     =           0.0000                 GW ET     =           0.0000
     SURFACE LEAKAGE     =           0.0000       SURFACE LEAKAGE     =           0.0000
           AG WELLS      =           0.0000             AG WELLS      =           0.0000

               TOTAL OUT =    33038956.0000                 TOTAL OUT =          12.1106

                IN - OUT =        -460.0000                  IN - OUT =      -1.1063E-04

     PERCENT DISCREPANCY =          -0.00         PERCENT DISCREPANCY =          -0.00






         TIME SUMMARY AT END OF TIME STEP   30 IN STRESS PERIOD    2
                    SECONDS     MINUTES      HOURS       DAYS        YEARS
                    -----------------------------------------------------------
   TIME STEP LENGTH  87667.      1461.1      24.352      1.0147     2.77799E-03
 STRESS PERIOD TIME 2.63000E+06  43833.      730.56      30.440     8.33397E-02
         TOTAL TIME 2.71640E+06  45273.      754.56      31.440     8.60775E-02
1
1
                            STRESS PERIOD NO.    3, LENGTH =   2630000.    
                            -----------------------------------------------

                              NUMBER OF TIME STEPS =    30

                               MULTIPLIER FOR DELT =     1.000

                            INITIAL TIME STEP SIZE =   87666.66    

 REUSING NON-PARAMETER GHB CELLS FROM LAST STRESS PERIOD

      2 GHB CELLS

 REUSING STREAM SEGMENT DATA FROM LAST STRESS PERIOD



            AREAL INFILTRATION RATE
 READING ON UNIT   19 WITH FORMAT: (FREE)              

            1           2           3           4           5           6           7           8           9          10
 ........................................................................................................................
   1   1.0000E-10  2.0000E-10   0.000       0.000       0.000       0.000       0.000       0.000       0.000       0.000    
   2   2.0000E-10  1.0000E-10  2.0000E-10   0.000       0.000      8.0000E-10  8.0000E-10  5.0000E-10   0.000       0.000    
   3    0.000      5.0000E-10  1.0000E-10  1.0000E-10  8.0000E-10  8.0000E-10  5.0000E-10  5.0000E-10   0.000       0.000    
   4   8.0000E-10  5.0000E-10  1.0000E-10  1.0000E-10  1.0000E-10  1.0000E-10  1.0000E-10  1.0000E-10  2.0000E-10   0.000    
   5   8.0000E-10  5.0000E-10  1.0000E-10  1.0000E-10  1.0000E-10  1.0000E-10  1.0000E-10  1.0000E-10  1.0000E-10  1.0000E-10
   6   8.0000E-10  5.0000E-10  5.0000E-10  2.0000E-10  2.0000E-10  1.0000E-10  1.0000E-10  1.0000E-10  1.0000E-10  5.0000E-10
   7   8.0000E-10  5.0000E-10  5.0000E-10  2.0000E-10  2.0000E-10  1.0000E-10  1.0000E-10  2.0000E-10  2.0000E-10   0.000    
   8    0.000      5.0000E-10  5.0000E-10  2.0000E-10  2.0000E-10  1.0000E-10  1.0000E-10  2.0000E-10  5.0000E-10   0.000    
   9    0.000      5.0000E-10  5.0000E-10  2.0000E-10  2.0000E-10  1.0000E-10  1.0000E-10  2.0000E-10  5.0000E-10   0.000    
  10    0.000      5.0000E-10  5.0000E-10  2.0000E-10  2.0000E-10  1.0000E-10  1.0000E-10  2.0000E-10  5.0000E-10  8.0000E-10
  11    0.000      1.0000E-10  1.0000E-10  1.0000E-10  1.0000E-10  1.0000E-10  1.0000E-10  2.0000E-10  5.0000E-10   0.000    
  12   1.0000E-10  1.0000E-10  1.0000E-10  1.0000E-10  1.0000E-10  1.0000E-10  1.0000E-10  1.0000E-10  2.0000E-10   0.000    
  13   1.0000E-10  1.0000E-10  2.0000E-10  2.0000E-10  2.0000E-10  2.0000E-10  2.0000E-10  1.0000E-10  1.0000E-10   0.000    
  14    0.000      2.0000E-10  5.0000E-10  5.0000E-10  5.0000E-10  5.0000E-10  5.0000E-10  2.0000E-10  1.0000E-10   0.000    
  15    0.000       0.000      8.0000E-10  8.0000E-10  8.0000E-10  8.0000E-10   0.000       0.000       0.000       0.000    

                  ET RATE =  5.000000E-10

 USING ET EXTINCTION DEPTH FROM PREVIOUS STRESS PERIOD. CURRENT PERIOD IS:       3

 USING EXTINCTION WATER CONTENT FROM PREVIOUS STRESS PERIOD. CURRENT PERIOD IS:       3

 USING AIR ENTRY PRESSURE FROM PREVIOUS STRESS PERIOD. CURRENT PERIOD IS:       3

 USING ROOT PRESSURE HEAD FROM PREVIOUS STRESS PERIOD. CURRENT PERIOD IS:       3

 USING ROOT ACTIVITY FROM PREVIOUS STRESS PERIOD. CURRENT PERIOD IS:       3

 PROCESSING AG STRESS PERIOD DATA

 READING AG STRESS PERIOD DATA

 READING IRRIGATION SEGMENT

 READING IRRIGATION WELL

 READING SUPPLEMENTAL WELL

 NO IRRPOND OR REUSING IRRPOND DATA FROM LAST STRESS PERIOD

 END PROCESSING AG STRESS PERIOD DATA OPTIONS
 
 SOLVING FOR HEAD 
                                                   Max.-Head-Change                         Max.-Flux-Residual
  Residual-Control   Outer-Iter.   Inner-Iter.     Column Row Layer    Maximum-Head-Change  Column Row Layer    Maximum-Flux-Residual          L2-NORM 
          0                 1           2             2    2     1       0.3921640727E-02       2    2    1         0.2048605367E+00      0.4998719366E+00
          0                 2           2             7   13     1      -0.6931948785E-03       7   13    1        -0.3837497749E-01      0.6128776747E-01
          0                 3           1             7   13     1       0.4719176522E-04       7   13    1         0.2685570582E-02      0.4239795562E-02

    ------------------------------------------------
       NWT REQUIRED            3 OUTER ITERATIONS 
       AND A TOTAL OF          5 INNER ITERATIONS.
    ------------------------------------------------

 NO OUTPUT CONTROL FOR STRESS PERIOD    3   TIME STEP    1
 
 SOLVING FOR HEAD 
                                                   Max.-Head-Change                         Max.-Flux-Residual
  Residual-Control   Outer-Iter.   Inner-Iter.     Column Row Layer    Maximum-Head-Change  Column Row Layer    Maximum-Flux-Residual          L2-NORM 
          0                 1           2             2   13     1       0.5737848324E-02       4   13    1         0.3262450960E+00      0.7450786839E+00
          0                 2           2             4   13     1      -0.5480878175E-03       4   13    1        -0.3228390834E-01      0.7315651980E-01
          0                 3           1             4   13     1       0.3677863260E-04       4   13    1         0.2227302336E-02      0.4995162275E-02

    ------------------------------------------------
       NWT REQUIRED            3 OUTER ITERATIONS 
       AND A TOTAL OF          5 INNER ITERATIONS.
    ------------------------------------------------

 NO OUTPUT CONTROL FOR STRESS PERIOD    3   TIME STEP    2
 
 SOLVING FOR HEAD 
                                                   Max.-Head-Change                         Max.-Flux-Residual
  Residual-Control   Outer-Iter.   Inner-Iter.     Column Row Layer    Maximum-Head-Change  Column Row Layer    Maximum-Flux-Residual          L2-NORM 
          0                 1           2             2   13     1       0.5310463294E-02       2   13    1         0.2989811985E+00      0.7084675238E+00
          0                 2           2             4   13     1      -0.4975366923E-03       4   13    1        -0.2928598003E-01      0.6963272701E-01
          0                 3           1             4   13     1       0.3336997042E-04       4   13    1         0.2019443943E-02      0.4761546779E-02

    ------------------------------------------------
       NWT REQUIRED            3 OUTER ITERATIONS 
       AND A TOTAL OF          5 INNER ITERATIONS.
    ------------------------------------------------

 NO OUTPUT CONTROL FOR STRESS PERIOD    3   TIME STEP    3
 
 SOLVING FOR HEAD 
                                                   Max.-Head-Change                         Max.-Flux-Residual
  Residual-Control   Outer-Iter.   Inner-Iter.     Column Row Layer    Maximum-Head-Change  Column Row Layer    Maximum-Flux-Residual          L2-NORM 
          0                 1           2             2   13     1       0.4915335462E-02       2   13    1         0.2767006368E+00      0.6757128720E+00
          0                 2           2             2    2     1      -0.4665859467E-03       4   13    1        -0.2658701655E-01      0.6648371856E-01
          0                 3           1             2    2     1       0.3177276404E-04       4   13    1         0.1833410050E-02      0.4552599550E-02

    ------------------------------------------------
       NWT REQUIRED            3 OUTER ITERATIONS 
       AND A TOTAL OF          5 INNER ITERATIONS.
    ------------------------------------------------

 NO OUTPUT CONTROL FOR STRESS PERIOD    3   TIME STEP    4
 
 SOLVING FOR HEAD 
                                                   Max.-Head-Change                         Max.-Flux-Residual
  Residual-Control   Outer-Iter.   Inner-Iter.     Column Row Layer    Maximum-Head-Change  Column Row Layer    Maximum-Flux-Residual          L2-NORM 
          0                 1           2             2    2     1       0.4764247491E-02       2   13    1         0.2561076174E+00      0.6464225526E+00
          0                 2           2             2    2     1      -0.4634322824E-03       2    2    1        -0.2488671475E-01      0.6366872501E-01
          0                 3           1             2    2     1       0.3155801145E-04       2    2    1         0.1742070209E-02      0.4365937162E-02

    ------------------------------------------------
       NWT REQUIRED            3 OUTER ITERATIONS 
       AND A TOTAL OF          5 INNER ITERATIONS.
    ------------------------------------------------

 NO OUTPUT CONTROL FOR STRESS PERIOD    3   TIME STEP    5
 
 SOLVING FOR HEAD 
                                                   Max.-Head-Change                         Max.-Flux-Residual
  Residual-Control   Outer-Iter.   Inner-Iter.     Column Row Layer    Maximum-Head-Change  Column Row Layer    Maximum-Flux-Residual          L2-NORM 
          0                 1           2             2    2     1       0.4732200352E-02       2    2    1         0.2471810290E+00      0.6202312920E+00
          0                 2           2             2    2     1      -0.4603149523E-03       2    2    1        -0.2471816257E-01      0.6115467715E-01
          0                 3           1             2    2     1       0.3134573327E-04       2    2    1         0.1730271577E-02      0.4199957212E-02

    ------------------------------------------------
       NWT REQUIRED            3 OUTER ITERATIONS 
       AND A TOTAL OF          5 INNER ITERATIONS.
    ------------------------------------------------

 NO OUTPUT CONTROL FOR STRESS PERIOD    3   TIME STEP    6
 
 SOLVING FOR HEAD 
                                                   Max.-Head-Change                         Max.-Flux-Residual
  Residual-Control   Outer-Iter.   Inner-Iter.     Column Row Layer    Maximum-Head-Change  Column Row Layer    Maximum-Flux-Residual          L2-NORM 
          0                 1           2             2    2     1       0.4700606368E-02       2    2    1         0.2455194204E+00      0.5968142160E+00
          0                 2           2             2    2     1      -0.4572417024E-03       2    2    1        -0.2455200061E-01      0.5890799368E-01
          0                 3           1             2    2     1       0.3113645612E-04       2    2    1         0.1718640229E-02      0.4051671167E-02

    ------------------------------------------------
       NWT REQUIRED            3 OUTER ITERATIONS 
       AND A TOTAL OF          5 INNER ITERATIONS.
    ------------------------------------------------

 NO OUTPUT CONTROL FOR STRESS PERIOD    3   TIME STEP    7
 
 SOLVING FOR HEAD 
                                                   Max.-Head-Change                         Max.-Flux-Residual
  Residual-Control   Outer-Iter.   Inner-Iter.     Column Row Layer    Maximum-Head-Change  Column Row Layer    Maximum-Flux-Residual          L2-NORM 
          0                 1           2             2    2     1       0.4669458605E-02       2    2    1         0.2438813074E+00      0.5758725219E+00
          0                 2           2             2    2     1      -0.4542118580E-03       2    2    1        -0.2438818822E-01      0.5689915039E-01
          0                 3           1             2    2     1       0.3093013525E-04       2    2    1         0.1707173378E-02      0.3920168642E-02

    ------------------------------------------------
       NWT REQUIRED            3 OUTER ITERATIONS 
       AND A TOTAL OF          5 INNER ITERATIONS.
    ------------------------------------------------

 NO OUTPUT CONTROL FOR STRESS PERIOD    3   TIME STEP    8
 
 SOLVING FOR HEAD 
                                                   Max.-Head-Change                         Max.-Flux-Residual
  Residual-Control   Outer-Iter.   Inner-Iter.     Column Row Layer    Maximum-Head-Change  Column Row Layer    Maximum-Flux-Residual          L2-NORM 
          0                 1           2             2    2     1       0.4638749856E-02       2    2    1         0.2422663304E+00      0.5571329727E+00
          0                 2           2             2    2     1      -0.4512247179E-03       2    2    1        -0.2422668944E-01      0.5510234032E-01
          0                 3           1             2    2     1       0.3072672238E-04       2    2    1         0.1695868471E-02      0.3800779545E-02

    ------------------------------------------------
       NWT REQUIRED            3 OUTER ITERATIONS 
       AND A TOTAL OF          5 INNER ITERATIONS.
    ------------------------------------------------

 NO OUTPUT CONTROL FOR STRESS PERIOD    3   TIME STEP    9
 
 SOLVING FOR HEAD 
                                                   Max.-Head-Change                         Max.-Flux-Residual
  Residual-Control   Outer-Iter.   Inner-Iter.     Column Row Layer    Maximum-Head-Change  Column Row Layer    Maximum-Flux-Residual          L2-NORM 
          0                 1           2             2    2     1       0.4608473399E-02       2    2    1         0.2406741158E+00      0.5403538691E+00
          0                 2           2             2    2     1      -0.4482796287E-03       2    2    1        -0.2406746696E-01      0.5349350062E-01
          0                 3           1             2    2     1       0.3052617279E-04       2    2    1         0.1684722895E-02      0.3694716576E-02

    ------------------------------------------------
       NWT REQUIRED            3 OUTER ITERATIONS 
       AND A TOTAL OF          5 INNER ITERATIONS.
    ------------------------------------------------

 NO OUTPUT CONTROL FOR STRESS PERIOD    3   TIME STEP   10
 
 SOLVING FOR HEAD 
                                                   Max.-Head-Change                         Max.-Flux-Residual
  Residual-Control   Outer-Iter.   Inner-Iter.     Column Row Layer    Maximum-Head-Change  Column Row Layer    Maximum-Flux-Residual          L2-NORM 
          0                 1           2             2    2     1       0.4578535511E-02       2    2    1         0.2390997796E+00      0.5253116936E+00
          0                 2           2             2    2     1      -0.4453674732E-03       2    2    1        -0.2391003232E-01      0.5205008379E-01
          0                 3           1             2    2     1       0.3032786614E-04       2    2    1         0.1673702482E-02      0.3600745662E-02

    ------------------------------------------------
       NWT REQUIRED            3 OUTER ITERATIONS 
       AND A TOTAL OF          5 INNER ITERATIONS.
    ------------------------------------------------

 NO OUTPUT CONTROL FOR STRESS PERIOD    3   TIME STEP   11
 
 SOLVING FOR HEAD 
                                                   Max.-Head-Change                         Max.-Flux-Residual
  Residual-Control   Outer-Iter.   Inner-Iter.     Column Row Layer    Maximum-Head-Change  Column Row Layer    Maximum-Flux-Residual          L2-NORM 
          0                 1           2             2    2     1       0.4549016790E-02       2    2    1         0.2375475332E+00      0.5118069374E+00
          0                 2           2             2    2     1      -0.4424960918E-03       2    2    1        -0.2375480670E-01      0.5075393659E-01
          0                 3           1             2    2     1       0.3013233568E-04       2    2    1         0.1662836691E-02      0.3513181357E-02

    ------------------------------------------------
       NWT REQUIRED            3 OUTER ITERATIONS 
       AND A TOTAL OF          5 INNER ITERATIONS.
    ------------------------------------------------

 NO OUTPUT CONTROL FOR STRESS PERIOD    3   TIME STEP   12
 
 SOLVING FOR HEAD 
                                                   Max.-Head-Change                         Max.-Flux-Residual
  Residual-Control   Outer-Iter.   Inner-Iter.     Column Row Layer    Maximum-Head-Change  Column Row Layer    Maximum-Flux-Residual          L2-NORM 
          0                 1           2             2    2     1       0.4519910909E-02       2    2    1         0.2360170202E+00      0.4996684567E+00
          0                 2           2             2    2     1      -0.4396648691E-03       2    2    1        -0.2360175446E-01      0.4959089536E-01
          0                 3           1             2    2     1       0.2993953974E-04       2    2    1         0.1652123025E-02      0.3436755389E-02

    ------------------------------------------------
       NWT REQUIRED            3 OUTER ITERATIONS 
       AND A TOTAL OF          5 INNER ITERATIONS.
    ------------------------------------------------

 NO OUTPUT CONTROL FOR STRESS PERIOD    3   TIME STEP   13
 
 SOLVING FOR HEAD 
                                                   Max.-Head-Change                         Max.-Flux-Residual
  Residual-Control   Outer-Iter.   Inner-Iter.     Column Row Layer    Maximum-Head-Change  Column Row Layer    Maximum-Flux-Residual          L2-NORM 
          0                 1           2             2    2     1       0.4491211212E-02       2    2    1         0.2345079124E+00      0.4887377962E+00
          0                 2           2             2    2     1      -0.4368731566E-03       2    2    1        -0.2345084272E-01      0.4853933631E-01
          0                 3           1             2    2     1       0.2974943478E-04       2    2    1         0.1641559221E-02      0.3367082809E-02

    ------------------------------------------------
       NWT REQUIRED            3 OUTER ITERATIONS 
       AND A TOTAL OF          5 INNER ITERATIONS.
    ------------------------------------------------

 NO OUTPUT CONTROL FOR STRESS PERIOD    3   TIME STEP   14
 
 SOLVING FOR HEAD 
                                                   Max.-Head-Change                         Max.-Flux-Residual
  Residual-Control   Outer-Iter.   Inner-Iter.     Column Row Layer    Maximum-Head-Change  Column Row Layer    Maximum-Flux-Residual          L2-NORM 
          0                 1           2             2    2     1       0.4462824820E-02       2    2    1         0.2330153288E+00      0.4788720613E+00
          0                 2           2             2    2     1      -0.4341119208E-03       2    2    1        -0.2330158345E-01      0.4759143368E-01
          0                 3           1             2    2     1       0.2956140520E-04       2    2    1         0.1631111074E-02      0.3304041970E-02

    ------------------------------------------------
       NWT REQUIRED            3 OUTER ITERATIONS 
       AND A TOTAL OF          5 INNER ITERATIONS.
    ------------------------------------------------

 NO OUTPUT CONTROL FOR STRESS PERIOD    3   TIME STEP   15
 
 SOLVING FOR HEAD 
                                                   Max.-Head-Change                         Max.-Flux-Residual
  Residual-Control   Outer-Iter.   Inner-Iter.     Column Row Layer    Maximum-Head-Change  Column Row Layer    Maximum-Flux-Residual          L2-NORM 
          0                 1           2             2    2     1       0.4434832751E-02       2    2    1         0.2315435257E+00      0.4699384686E+00
          0                 2           2             2    2     1      -0.4313890423E-03       2    2    1        -0.2315440224E-01      0.4673193446E-01
          0                 3           1             2    2     1       0.2937598731E-04       2    2    1         0.1620808387E-02      0.3247045045E-02

    ------------------------------------------------
       NWT REQUIRED            3 OUTER ITERATIONS 
       AND A TOTAL OF          5 INNER ITERATIONS.
    ------------------------------------------------

 NO OUTPUT CONTROL FOR STRESS PERIOD    3   TIME STEP   16
 
 SOLVING FOR HEAD 
                                                   Max.-Head-Change                         Max.-Flux-Residual
  Residual-Control   Outer-Iter.   Inner-Iter.     Column Row Layer    Maximum-Head-Change  Column Row Layer    Maximum-Flux-Residual          L2-NORM 
          0                 1           2             2    2     1       0.4407229088E-02       2    2    1         0.2300921678E+00      0.4618380669E+00
          0                 2           2             2    2     1      -0.4287039453E-03       2    2    1        -0.2300926558E-01      0.4595220682E-01
          0                 3           1             2    2     1       0.2919314206E-04       2    2    1         0.1610648823E-02      0.3194967980E-02

    ------------------------------------------------
       NWT REQUIRED            3 OUTER ITERATIONS 
       AND A TOTAL OF          5 INNER ITERATIONS.
    ------------------------------------------------

 NO OUTPUT CONTROL FOR STRESS PERIOD    3   TIME STEP   17
 
 SOLVING FOR HEAD 
                                                   Max.-Head-Change                         Max.-Flux-Residual
  Residual-Control   Outer-Iter.   Inner-Iter.     Column Row Layer    Maximum-Head-Change  Column Row Layer    Maximum-Flux-Residual          L2-NORM 
          0                 1           2             2    2     1       0.4379997062E-02       2    2    1         0.2286604169E+00      0.4544617525E+00
          0                 2           2             2    2     1      -0.4260549990E-03       2    2    1        -0.2286608963E-01      0.4524107121E-01
          0                 3           1             2    2     1       0.2901275916E-04       2    2    1         0.1600626526E-02      0.3147893789E-02

    ------------------------------------------------
       NWT REQUIRED            3 OUTER ITERATIONS 
       AND A TOTAL OF          5 INNER ITERATIONS.
    ------------------------------------------------

 NO OUTPUT CONTROL FOR STRESS PERIOD    3   TIME STEP   18
 
 SOLVING FOR HEAD 
                                                   Max.-Head-Change                         Max.-Flux-Residual
  Residual-Control   Outer-Iter.   Inner-Iter.     Column Row Layer    Maximum-Head-Change  Column Row Layer    Maximum-Flux-Residual          L2-NORM 
          0                 1           2             2    2     1       0.4353151369E-02       2    2    1         0.2272489978E+00      0.4477424130E+00
          0                 2           2             2    2     1      -0.4234436319E-03       2    2    1        -0.2272494686E-01      0.4459267484E-01
          0                 3           1             2    2     1       0.2883493470E-04       2    2    1         0.1590746523E-02      0.3105138536E-02

    ------------------------------------------------
       NWT REQUIRED            3 OUTER ITERATIONS 
       AND A TOTAL OF          5 INNER ITERATIONS.
    ------------------------------------------------

 NO OUTPUT CONTROL FOR STRESS PERIOD    3   TIME STEP   19
 
 SOLVING FOR HEAD 
                                                   Max.-Head-Change                         Max.-Flux-Residual
  Residual-Control   Outer-Iter.   Inner-Iter.     Column Row Layer    Maximum-Head-Change  Column Row Layer    Maximum-Flux-Residual          L2-NORM 
          0                 1           2             2    2     1       0.4326589338E-02       2    2    1         0.2258525414E+00      0.4415879275E+00
          0                 2           2             2    2     1      -0.4208598585E-03       2    2    1        -0.2258530042E-01      0.4399820735E-01
          0                 3           1             2    2     1       0.2865898918E-04       2    2    1         0.1580971273E-02      0.3065258862E-02

    ------------------------------------------------
       NWT REQUIRED            3 OUTER ITERATIONS 
       AND A TOTAL OF          5 INNER ITERATIONS.
    ------------------------------------------------

 NO OUTPUT CONTROL FOR STRESS PERIOD    3   TIME STEP   20
 
 SOLVING FOR HEAD 
                                                   Max.-Head-Change                         Max.-Flux-Residual
  Residual-Control   Outer-Iter.   Inner-Iter.     Column Row Layer    Maximum-Head-Change  Column Row Layer    Maximum-Flux-Residual          L2-NORM 
          0                 1           2             2    2     1       0.4300478965E-02       2    2    1         0.2244798663E+00      0.4359393856E+00
          0                 2           2             2    2     1      -0.4183200194E-03       2    2    1        -0.2244803214E-01      0.4345138173E-01
          0                 3           1             2    2     1       0.2848603546E-04       2    2    1         0.1571362492E-02      0.3028301030E-02

    ------------------------------------------------
       NWT REQUIRED            3 OUTER ITERATIONS 
       AND A TOTAL OF          5 INNER ITERATIONS.
    ------------------------------------------------

 NO OUTPUT CONTROL FOR STRESS PERIOD    3   TIME STEP   21
 
 SOLVING FOR HEAD 
                                                   Max.-Head-Change                         Max.-Flux-Residual
  Residual-Control   Outer-Iter.   Inner-Iter.     Column Row Layer    Maximum-Head-Change  Column Row Layer    Maximum-Flux-Residual          L2-NORM 
          0                 1           2             2    2     1       0.4274640541E-02       2    2    1         0.2231215352E+00      0.4307383254E+00
          0                 2           2             2    2     1      -0.4158066334E-03       2    2    1        -0.2231219824E-01      0.4294771498E-01
          0                 3           1             2    2     1       0.2831488352E-04       2    2    1         0.1561854118E-02      0.2994621151E-02

    ------------------------------------------------
       NWT REQUIRED            3 OUTER ITERATIONS 
       AND A TOTAL OF          5 INNER ITERATIONS.
    ------------------------------------------------

 NO OUTPUT CONTROL FOR STRESS PERIOD    3   TIME STEP   22
 
 SOLVING FOR HEAD 
                                                   Max.-Head-Change                         Max.-Flux-Residual
  Residual-Control   Outer-Iter.   Inner-Iter.     Column Row Layer    Maximum-Head-Change  Column Row Layer    Maximum-Flux-Residual          L2-NORM 
          0                 1           2             2    2     1       0.4249069433E-02       2    2    1         0.2217773042E+00      0.4259341993E+00
          0                 2           2             2    2     1      -0.4133192505E-03       2    2    1        -0.2217777439E-01      0.4248109880E-01
          0                 3           1             2    2     1       0.2814550214E-04       2    2    1         0.1552444457E-02      0.2963466062E-02

    ------------------------------------------------
       NWT REQUIRED            3 OUTER ITERATIONS 
       AND A TOTAL OF          5 INNER ITERATIONS.
    ------------------------------------------------

 NO OUTPUT CONTROL FOR STRESS PERIOD    3   TIME STEP   23
 
 SOLVING FOR HEAD 
                                                   Max.-Head-Change                         Max.-Flux-Residual
  Residual-Control   Outer-Iter.   Inner-Iter.     Column Row Layer    Maximum-Head-Change  Column Row Layer    Maximum-Flux-Residual          L2-NORM 
          0                 1           2             2    2     1       0.4223934285E-02       2    2    1         0.2204560075E+00      0.4214811018E+00
          0                 2           2             2    2     1      -0.4108742747E-03       2    2    1        -0.2204564396E-01      0.4204810077E-01
          0                 3           1             2    2     1       0.2797900841E-04       2    2    1         0.1543195329E-02      0.2934244818E-02

    ------------------------------------------------
       NWT REQUIRED            3 OUTER ITERATIONS 
       AND A TOTAL OF          5 INNER ITERATIONS.
    ------------------------------------------------

 NO OUTPUT CONTROL FOR STRESS PERIOD    3   TIME STEP   24
 
 SOLVING FOR HEAD 
                                                   Max.-Head-Change                         Max.-Flux-Residual
  Residual-Control   Outer-Iter.   Inner-Iter.     Column Row Layer    Maximum-Head-Change  Column Row Layer    Maximum-Flux-Residual          L2-NORM 
          0                 1           2             2    2     1       0.4199142071E-02       2    2    1         0.2191527778E+00      0.4173408621E+00
          0                 2           2             2    2     1      -0.4084626574E-03       2    2    1        -0.2191532027E-01      0.4164516098E-01
          0                 3           1             2    2     1       0.2781478627E-04       2    2    1         0.1534072676E-02      0.2906891072E-02

    ------------------------------------------------
       NWT REQUIRED            3 OUTER ITERATIONS 
       AND A TOTAL OF          5 INNER ITERATIONS.
    ------------------------------------------------

 NO OUTPUT CONTROL FOR STRESS PERIOD    3   TIME STEP   25
 
 SOLVING FOR HEAD 
                                                   Max.-Head-Change                         Max.-Flux-Residual
  Residual-Control   Outer-Iter.   Inner-Iter.     Column Row Layer    Maximum-Head-Change  Column Row Layer    Maximum-Flux-Residual          L2-NORM 
          0                 1           2             2    2     1       0.4174600530E-02       2    2    1         0.2178627913E+00      0.4134797904E+00
          0                 2           2             2    2     1      -0.4060754240E-03       2    2    1        -0.2178632090E-01      0.4126956013E-01
          0                 3           1             2    2     1       0.2765222511E-04       2    2    1         0.1525042735E-02      0.2881935758E-02

    ------------------------------------------------
       NWT REQUIRED            3 OUTER ITERATIONS 
       AND A TOTAL OF          5 INNER ITERATIONS.
    ------------------------------------------------

 NO OUTPUT CONTROL FOR STRESS PERIOD    3   TIME STEP   26
 
 SOLVING FOR HEAD 
                                                   Max.-Head-Change                         Max.-Flux-Residual
  Residual-Control   Outer-Iter.   Inner-Iter.     Column Row Layer    Maximum-Head-Change  Column Row Layer    Maximum-Flux-Residual          L2-NORM 
          0                 1           2             2    2     1       0.4150391834E-02       2    2    1         0.2165903393E+00      0.4098650537E+00
          0                 2           2             2    2     1      -0.4037205679E-03       2    2    1        -0.2165907503E-01      0.4092682611E-01
          0                 3           1             2    2     1       0.2749186784E-04       2    2    1         0.1516135520E-02      0.2858546844E-02

    ------------------------------------------------
       NWT REQUIRED            3 OUTER ITERATIONS 
       AND A TOTAL OF          5 INNER ITERATIONS.
    ------------------------------------------------

 NO OUTPUT CONTROL FOR STRESS PERIOD    3   TIME STEP   27
 
 SOLVING FOR HEAD 
                                                   Max.-Head-Change                         Max.-Flux-Residual
  Residual-Control   Outer-Iter.   Inner-Iter.     Column Row Layer    Maximum-Head-Change  Column Row Layer    Maximum-Flux-Residual          L2-NORM 
          0                 1           2             2    2     1       0.4126511094E-02       2    2    1         0.2153351449E+00      0.4064678185E+00
          0                 2           2             2    2     1      -0.4013976122E-03       2    2    1        -0.2153355489E-01      0.4058387104E-01
          0                 3           1             2    2     1       0.2733368347E-04       2    2    1         0.1507349112E-02      0.2835223243E-02

    ------------------------------------------------
       NWT REQUIRED            3 OUTER ITERATIONS 
       AND A TOTAL OF          5 INNER ITERATIONS.
    ------------------------------------------------

 NO OUTPUT CONTROL FOR STRESS PERIOD    3   TIME STEP   28
 
 SOLVING FOR HEAD 
                                                   Max.-Head-Change                         Max.-Flux-Residual
  Residual-Control   Outer-Iter.   Inner-Iter.     Column Row Layer    Maximum-Head-Change  Column Row Layer    Maximum-Flux-Residual          L2-NORM 
          0                 1           2             2    2     1       0.4102953139E-02       2    2    1         0.2140969548E+00      0.4032579467E+00
          0                 2           2             2    2     1      -0.3991060559E-03       2    2    1        -0.2140973524E-01      0.4026944594E-01
          0                 3           1             2    2     1       0.2717763674E-04       2    2    1         0.1498681733E-02      0.2814509076E-02

    ------------------------------------------------
       NWT REQUIRED            3 OUTER ITERATIONS 
       AND A TOTAL OF          5 INNER ITERATIONS.
    ------------------------------------------------

 NO OUTPUT CONTROL FOR STRESS PERIOD    3   TIME STEP   29
 
 SOLVING FOR HEAD 
                                                   Max.-Head-Change                         Max.-Flux-Residual
  Residual-Control   Outer-Iter.   Inner-Iter.     Column Row Layer    Maximum-Head-Change  Column Row Layer    Maximum-Flux-Residual          L2-NORM 
          0                 1           2             4   13     1       0.9279378985E-02       4   13    1         0.5331634570E+00      0.1129361325E+01
          0                 2           2             4   13     1      -0.8928503052E-03       4   13    1        -0.5274537437E-01      0.1105072739E+00
          0                 3           1             4   13     1       0.5989610090E-04       4   13    1         0.3637934295E-02      0.7507072825E-02

    ------------------------------------------------
       NWT REQUIRED            3 OUTER ITERATIONS 
       AND A TOTAL OF          5 INNER ITERATIONS.
    ------------------------------------------------

 NO OUTPUT CONTROL FOR STRESS PERIOD    3   TIME STEP   30



 STREAM LISTING     PERIOD      3   STEP       30

 LAYER ROW COL. STREAM  RCH.  FLOW INTO     FLOW TO   FLOW OUT OF   OVRLND.     DIRECT     STREAM       STREAM     STREAM     STREAM   STREAMBED  STREAMBED
                SEG.NO.  NO.  STRM. RCH.    AQUIFER    STRM. RCH.    RUNOFF     PRECIP       ET          HEAD       DEPTH      WIDTH   CONDCTNC.   GRADIENT

   1    1    1     1     1    5.4376E+01  3.5202E-01   5.4024E+01  0.000E+00  0.000E+00  0.000E+00  1.09450E+03  1.455E+00  1.756E+01  7.901E-02  1.485E+00
   1    2    2     1     2    5.4024E+01  5.4505E-01   5.3479E+01  0.000E+00  0.000E+00  0.000E+00  1.08951E+03  1.449E+00  1.750E+01  1.225E-01  1.483E+00
   1    3    3     1     3    5.3479E+01  4.6474E-01   5.3014E+01  0.000E+00  0.000E+00  0.000E+00  1.08386E+03  1.443E+00  1.743E+01  1.046E-01  1.481E+00
   1    3    4     1     4    5.3014E+01  4.2788E-01   5.2587E+01  0.000E+00  0.000E+00  0.000E+00  1.07884E+03  1.437E+00  1.738E+01  9.643E-02  1.479E+00
   1    4    5     2     1    5.0587E+01  3.7745E-01   5.0209E+01  0.000E+00  0.000E+00  0.000E+00  1.07377E+03  1.839E+00  1.200E+01  7.800E-02  1.613E+00
   1    5    6     2     2    5.0209E+01  2.8990E-01   4.9919E+01  0.000E+00  0.000E+00  0.000E+00  1.06834E+03  1.832E+00  1.200E+01  6.000E-02  1.611E+00
   1    6    6     2     3    4.9919E+01  2.8952E-01   4.9630E+01  0.000E+00  0.000E+00  0.000E+00  1.06362E+03  1.825E+00  1.200E+01  6.000E-02  1.608E+00
   1    7    6     2     4    4.9630E+01  2.8914E-01   4.9341E+01  0.000E+00  0.000E+00  0.000E+00  1.05889E+03  1.819E+00  1.200E+01  6.000E-02  1.606E+00
   1    8    6     2     5    4.9341E+01  2.8876E-01   4.9052E+01  0.000E+00  0.000E+00  0.000E+00  1.05417E+03  1.813E+00  1.200E+01  6.000E-02  1.604E+00
   1    3    5     3     1    2.0000E+00  2.8252E-01   1.7175E+00  0.000E+00  0.000E+00  0.000E+00  1.07555E+03  1.909E+00  9.636E+00  7.227E-02  1.955E+00
   1    3    6     3     2    1.7175E+00  2.4905E-01   1.4684E+00  0.000E+00  0.000E+00  0.000E+00  1.07264E+03  1.727E+00  8.909E+00  6.682E-02  1.864E+00
   1    3    7     3     3    1.4684E+00  1.9718E-01   1.2712E+00  0.000E+00  0.000E+00  0.000E+00  1.06987E+03  1.555E+00  8.218E+00  5.547E-02  1.777E+00
   1    4    8     3     4    1.2712E+00  2.2567E-01   1.0456E+00  0.000E+00  0.000E+00  0.000E+00  1.06682E+03  1.364E+00  7.455E+00  6.709E-02  1.682E+00
   1    5    8     3     5    1.0456E+00  1.5790E-01   8.8768E-01  0.000E+00  0.000E+00  0.000E+00  1.06362E+03  1.164E+00  6.655E+00  4.991E-02  1.582E+00
   1    6    8     3     6    8.8768E-01  5.5980E-02   8.3170E-01  0.000E+00  0.000E+00  0.000E+00  1.06158E+03  1.036E+00  6.145E+00  1.844E-02  1.518E+00
   1    5   10     4     1    1.0000E+01  9.0919E-02   9.9091E+00  0.000E+00  0.000E+00  0.000E+00  1.07836E+03  6.368E-01  1.000E+01  2.500E-02  1.212E+00
   1    5    9     4     2    9.9091E+00  1.8158E-01   9.7275E+00  0.000E+00  0.000E+00  0.000E+00  1.07154E+03  6.315E-01  1.000E+01  5.000E-02  1.211E+00
   1    6    8     4     3    9.7275E+00  1.2689E-01   9.6006E+00  0.000E+00  0.000E+00  0.000E+00  1.06381E+03  6.256E-01  1.000E+01  3.500E-02  1.209E+00
   1    6    8     5     1    1.0432E+01  2.2686E-01   1.0205E+01  0.000E+00  0.000E+00  0.000E+00  1.05868E+03  6.790E-01  1.542E+01  6.166E-02  1.226E+00
   1    7    7     5     2    1.0205E+01  2.7894E-01   9.9265E+00  0.000E+00  0.000E+00  0.000E+00  1.05417E+03  6.732E-01  1.519E+01  7.594E-02  1.224E+00
   1    8    7     5     3    9.9265E+00  1.9221E-01   9.7343E+00  0.000E+00  0.000E+00  0.000E+00  1.04992E+03  6.676E-01  1.497E+01  5.241E-02  1.223E+00
   1    8    6     5     4    9.7343E+00  1.3577E-01   9.5985E+00  0.000E+00  0.000E+00  0.000E+00  1.04691E+03  6.637E-01  1.482E+01  3.706E-02  1.221E+00
   1    9    6     6     1    5.8650E+01  3.0201E-01   5.8348E+01  0.000E+00  0.000E+00  0.000E+00  1.04476E+03  2.034E+00  1.200E+01  6.000E-02  1.678E+00
   1   10    7     6     2    5.8348E+01  3.0164E-01   5.8047E+01  0.000E+00  0.000E+00  0.000E+00  1.04021E+03  2.027E+00  1.200E+01  6.000E-02  1.676E+00
   1   11    7     6     3    5.8047E+01  3.0126E-01   5.7745E+01  0.000E+00  0.000E+00  0.000E+00  1.03566E+03  2.021E+00  1.200E+01  6.000E-02  1.674E+00
   1   12    7     6     4    5.7745E+01  3.0088E-01   5.7445E+01  0.000E+00  0.000E+00  0.000E+00  1.03111E+03  2.015E+00  1.200E+01  6.000E-02  1.672E+00
   1   13    7     6     5    5.7445E+01  1.9557E-02   5.7425E+01  0.000E+00  0.000E+00  0.000E+00  1.02792E+03  2.011E+00  1.200E+01  2.400E-02  2.716E-01
   1   14    9     7     1    1.5000E+02  1.3350E+00   1.4866E+02  0.000E+00  0.000E+00  0.000E+00  1.03987E+03  2.288E+00  5.529E+01  5.593E-01  7.957E-01
   1   13    8     7     2    1.4866E+02  1.8309E+00   1.4683E+02  0.000E+00  0.000E+00  0.000E+00  1.03478E+03  2.279E+00  5.526E+01  6.148E-01  9.927E-01
   1   13    7     7     3    1.4683E+02  1.4433E+00   1.4539E+02  0.000E+00  0.000E+00  0.000E+00  1.02969E+03  2.271E+00  5.522E+01  5.585E-01  8.615E-01
   1   13    6     8     1    2.0282E+02  1.0334E+00   2.0178E+02  0.000E+00  0.000E+00  0.000E+00  1.02503E+03  3.151E+00  4.569E+01  4.656E-01  7.398E-01
   1   13    5     8     2    2.0178E+02  2.2869E-01   2.0155E+02  0.000E+00  0.000E+00  0.000E+00  1.01877E+03  3.148E+00  4.564E+01  4.651E-01  1.639E-01
   1   13    4     8     3    2.0155E+02 -2.0703E+00   2.0362E+02  0.000E+00  0.000E+00  0.000E+00  1.01253E+03  3.153E+00  4.572E+01  4.659E+00 -1.481E-01
   1   13    3     8     4    2.0362E+02 -3.2634E+00   2.0689E+02  0.000E+00  0.000E+00  0.000E+00  1.00629E+03  3.168E+00  4.594E+01  4.682E+00 -2.324E-01
   1   13    2     8     5    2.0689E+02 -2.0910E+00   2.0898E+02  0.000E+00  0.000E+00  0.000E+00  1.00006E+03  3.184E+00  4.617E+01  4.704E+00 -1.482E-01
   1   13    1     8     6    2.0898E+02 -1.6691E+00   2.1065E+02  0.000E+00  0.000E+00  0.000E+00  9.95070E+02  3.195E+00  4.632E+01  2.832E+00 -1.964E-01
   1    8    6     9     1    0.0000E+00  0.0000E+00   0.0000E+00  0.000E+00  0.000E+00  0.000E+00  1.07875E+03  0.000E+00  4.000E+00  0.000E+00  1.000E+00
   1    8    5     9     2    0.0000E+00  0.0000E+00   0.0000E+00  0.000E+00  0.000E+00  0.000E+00  1.07825E+03  0.000E+00  4.000E+00  0.000E+00  1.000E+00





UNSATURATED ZONE PACKAGE VOLUMETRIC BUDGET FOR  TIME STEP    30 STRESS PERIOD    3
  ------------------------------------------------------------------------------



     CUMULATIVE VOLUMES      L**3       RATES FOR THIS TIME STEP      L**3/T
     ------------------                 ------------------------

           IN:                                      IN:
           ---                                      ---
        INFILTRATION =     4531073.7455          INFILTRATION =           0.8475

          OUT:                                     OUT:
          ----                                     ----
              UZF ET =     3944985.5897                UZF ET =           0.7500
        UZF RECHARGE =       73224.0000          UZF RECHARGE =       0.0000E+00

            IN - OUT =      512864.1558              IN - OUT =       9.7500E-02

          STORAGE:                                 STORAGE:
          --------                                 --------
      STORAGE CHANGE =      512864.1946        STORAGE CHANGE =       9.7500E-02

 PERCENT DISCREPANCY IS DIFFERENCE BETWEEN IN-OUT MINUS CHANGE IN STORAGE
 DIVIDED BY THE AVERAGE OF IN AND OUT TIMES 100

 PERCENT DISCREPANCY =          -0.00     PERCENT DISCREPANCY =           0.00






1
  VOLUMETRIC BUDGET FOR AGRICULTURAL FIELDS AT  END OF TIME STEP   30, STRESS PERIOD   3
  ------------------------------------------------------------------------------

     CUMULATIVE VOLUMES      L**3       RATES FOR THIS TIME STEP      L**3/T
     ------------------                 ------------------------

           IN:                                      IN:
           ---                                      ---
               AG WELLS  =           0.0000                 AG WELLS  =           0.0000
      DIVERSION SEGMENTS =           0.0000        DIVERSION SEGMENTS =           0.0000
       IRRIGATION PONDS  =           0.0000         IRRIGATION PONDS  =           0.0000
           GW IRRIGATION =           0.0000             GW IRRIGATION =           0.0000
           SW IRRIGATION =           0.0000             SW IRRIGATION =           0.0000
        SYSTEM LOSSES GW =           0.0000          SYSTEM LOSSES GW =           0.0000
        SYSTEM LOSSES SW =           0.0000          SYSTEM LOSSES SW =           0.0000

                TOTAL IN =           0.0000                  TOTAL IN =           0.0000

          OUT:                                     OUT:
          ----                                     ----
               AG WELLS  =           0.0000                 AG WELLS  =           0.0000
      DIVERSION SEGMENTS =           0.0000        DIVERSION SEGMENTS =           0.0000
       IRRIGATION PONDS  =           0.0000         IRRIGATION PONDS  =           0.0000
           GW IRRIGATION =           0.0000             GW IRRIGATION =           0.0000
           SW IRRIGATION =           0.0000             SW IRRIGATION =           0.0000
        SYSTEM LOSSES GW =           0.0000          SYSTEM LOSSES GW =           0.0000
        SYSTEM LOSSES SW =           0.0000          SYSTEM LOSSES SW =           0.0000

               TOTAL OUT =           0.0000                 TOTAL OUT =           0.0000

                IN - OUT =           0.0000                  IN - OUT =           0.0000

     PERCENT DISCREPANCY =           0.00         PERCENT DISCREPANCY =           0.00



1
  VOLUMETRIC BUDGET FOR ENTIRE MODEL AT END OF TIME STEP   30, STRESS PERIOD   3
  ------------------------------------------------------------------------------

     CUMULATIVE VOLUMES      L**3       RATES FOR THIS TIME STEP      L**3/T
     ------------------                 ------------------------

           IN:                                      IN:
           ---                                      ---
             STORAGE     =     3122516.0000               STORAGE     =           0.4872
       CONSTANT HEAD     =           0.0000         CONSTANT HEAD     =           0.0000
     HEAD DEP BOUNDS     =     1527280.1250       HEAD DEP BOUNDS     =           0.2857
      STREAM LEAKAGE     =    61979672.0000        STREAM LEAKAGE     =          12.8226
        UZF RECHARGE     =       73223.9531          UZF RECHARGE     =           0.0000
               GW ET     =           0.0000                 GW ET     =           0.0000
     SURFACE LEAKAGE     =           0.0000       SURFACE LEAKAGE     =           0.0000
           AG WELLS      =           0.0000             AG WELLS      =           0.0000

                TOTAL IN =    66702692.0000                  TOTAL IN =          13.5955

          OUT:                                     OUT:
          ----                                     ----
             STORAGE     =     9107252.0000               STORAGE     =           4.2117
       CONSTANT HEAD     =           0.0000         CONSTANT HEAD     =           0.0000
     HEAD DEP BOUNDS     =     1544993.8750       HEAD DEP BOUNDS     =           0.2910
      STREAM LEAKAGE     =    56052144.0000        STREAM LEAKAGE     =           9.0938
        UZF RECHARGE     =           0.0000          UZF RECHARGE     =           0.0000
               GW ET     =           0.0000                 GW ET     =           0.0000
     SURFACE LEAKAGE     =           0.0000       SURFACE LEAKAGE     =           0.0000
           AG WELLS      =           0.0000             AG WELLS      =           0.0000

               TOTAL OUT =    66704392.0000                 TOTAL OUT =          13.5965

                IN - OUT =       -1700.0000                  IN - OUT =      -1.0576E-03

     PERCENT DISCREPANCY =          -0.00         PERCENT DISCREPANCY =          -0.01






         TIME SUMMARY AT END OF TIME STEP   30 IN STRESS PERIOD    3
                    SECONDS     MINUTES      HOURS       DAYS        YEARS
                    -----------------------------------------------------------
   TIME STEP LENGTH  87667.      1461.1      24.352      1.0147     2.77799E-03
 STRESS PERIOD TIME 2.63000E+06  43833.      730.56      30.440     8.33397E-02
         TOTAL TIME 5.34640E+06  89107.      1485.1      61.880     0.16942    
1
1
                            STRESS PERIOD NO.    4, LENGTH =   2630000.    
                            -----------------------------------------------

                              NUMBER OF TIME STEPS =    30

                               MULTIPLIER FOR DELT =     1.000

                            INITIAL TIME STEP SIZE =   87666.66    

 REUSING NON-PARAMETER GHB CELLS FROM LAST STRESS PERIOD

      2 GHB CELLS

 REUSING STREAM SEGMENT DATA FROM LAST STRESS PERIOD



            AREAL INFILTRATION RATE
 READING ON UNIT   19 WITH FORMAT: (FREE)              

            1           2           3           4           5           6           7           8           9          10
 ........................................................................................................................
   1   1.0000E-10  2.0000E-10   0.000       0.000       0.000       0.000       0.000       0.000       0.000       0.000    
   2   2.0000E-10  1.0000E-10  2.0000E-10   0.000       0.000      8.0000E-10  8.0000E-10  5.0000E-10   0.000       0.000    
   3    0.000      5.0000E-10  1.0000E-10  1.0000E-10  8.0000E-10  8.0000E-10  5.0000E-10  5.0000E-10   0.000       0.000    
   4   8.0000E-10  5.0000E-10  1.0000E-10  1.0000E-10  1.0000E-10  1.0000E-10  1.0000E-10  1.0000E-10  2.0000E-10   0.000    
   5   8.0000E-10  5.0000E-10  1.0000E-10  1.0000E-10  1.0000E-10  1.0000E-10  1.0000E-10  1.0000E-10  1.0000E-10  1.0000E-10
   6   8.0000E-10  5.0000E-10  5.0000E-10  2.0000E-10  2.0000E-10  1.0000E-10  1.0000E-10  1.0000E-10  1.0000E-10  5.0000E-10
   7   8.0000E-10  5.0000E-10  5.0000E-10  2.0000E-10  2.0000E-10  1.0000E-10  1.0000E-10  2.0000E-10  2.0000E-10   0.000    
   8    0.000      5.0000E-10  5.0000E-10  2.0000E-10  2.0000E-10  1.0000E-10  1.0000E-10  2.0000E-10  5.0000E-10   0.000    
   9    0.000      5.0000E-10  5.0000E-10  2.0000E-10  2.0000E-10  1.0000E-10  1.0000E-10  2.0000E-10  5.0000E-10   0.000    
  10    0.000      5.0000E-10  5.0000E-10  2.0000E-10  2.0000E-10  1.0000E-10  1.0000E-10  2.0000E-10  5.0000E-10  8.0000E-10
  11    0.000      1.0000E-10  1.0000E-10  1.0000E-10  1.0000E-10  1.0000E-10  1.0000E-10  2.0000E-10  5.0000E-10   0.000    
  12   1.0000E-10  1.0000E-10  1.0000E-10  1.0000E-10  1.0000E-10  1.0000E-10  1.0000E-10  1.0000E-10  2.0000E-10   0.000    
  13   1.0000E-10  1.0000E-10  2.0000E-10  2.0000E-10  2.0000E-10  2.0000E-10  2.0000E-10  1.0000E-10  1.0000E-10   0.000    
  14    0.000      2.0000E-10  5.0000E-10  5.0000E-10  5.0000E-10  5.0000E-10  5.0000E-10  2.0000E-10  1.0000E-10   0.000    
  15    0.000       0.000      8.0000E-10  8.0000E-10  8.0000E-10  8.0000E-10   0.000       0.000       0.000       0.000    

                  ET RATE =  5.000000E-10

 USING ET EXTINCTION DEPTH FROM PREVIOUS STRESS PERIOD. CURRENT PERIOD IS:       4

 USING EXTINCTION WATER CONTENT FROM PREVIOUS STRESS PERIOD. CURRENT PERIOD IS:       4

 USING AIR ENTRY PRESSURE FROM PREVIOUS STRESS PERIOD. CURRENT PERIOD IS:       4

 USING ROOT PRESSURE HEAD FROM PREVIOUS STRESS PERIOD. CURRENT PERIOD IS:       4

 USING ROOT ACTIVITY FROM PREVIOUS STRESS PERIOD. CURRENT PERIOD IS:       4

 PROCESSING AG STRESS PERIOD DATA

 READING AG STRESS PERIOD DATA

 READING IRRIGATION SEGMENT

 READING IRRIGATION WELL

 READING SUPPLEMENTAL WELL

 NO IRRPOND OR REUSING IRRPOND DATA FROM LAST STRESS PERIOD

 END PROCESSING AG STRESS PERIOD DATA OPTIONS
 
 SOLVING FOR HEAD 
                                                   Max.-Head-Change                         Max.-Flux-Residual
  Residual-Control   Outer-Iter.   Inner-Iter.     Column Row Layer    Maximum-Head-Change  Column Row Layer    Maximum-Flux-Residual          L2-NORM 
          0                 1           2             2   13     1       0.9722706591E-02       4   13    1         0.5574255494E+00      0.1192908535E+01
          0                 2           2             4   13     1      -0.9333061353E-03       4   13    1        -0.5513982280E-01      0.1166980764E+00
          0                 3           1             4   13     1       0.6258911565E-04       4   13    1         0.3801787017E-02      0.7929388182E-02

    ------------------------------------------------
       NWT REQUIRED            3 OUTER ITERATIONS 
       AND A TOTAL OF          5 INNER ITERATIONS.
    ------------------------------------------------

 NO OUTPUT CONTROL FOR STRESS PERIOD    4   TIME STEP    1
 
 SOLVING FOR HEAD 
                                                   Max.-Head-Change                         Max.-Flux-Residual
  Residual-Control   Outer-Iter.   Inner-Iter.     Column Row Layer    Maximum-Head-Change  Column Row Layer    Maximum-Flux-Residual          L2-NORM 
          0                 1           2             2   13     1       0.8971061845E-02       2   13    1         0.5067236770E+00      0.1125586528E+01
          0                 2           2             4   13     1      -0.8448244803E-03       4   13    1        -0.4987501123E-01      0.1102710026E+00
          0                 3           1             4   13     1       0.5665902957E-04       4   13    1         0.3438980787E-02      0.7503697694E-02

    ------------------------------------------------
       NWT REQUIRED            3 OUTER ITERATIONS 
       AND A TOTAL OF          5 INNER ITERATIONS.
    ------------------------------------------------

 NO OUTPUT CONTROL FOR STRESS PERIOD    4   TIME STEP    2
 
 SOLVING FOR HEAD 
                                                   Max.-Head-Change                         Max.-Flux-Residual
  Residual-Control   Outer-Iter.   Inner-Iter.     Column Row Layer    Maximum-Head-Change  Column Row Layer    Maximum-Flux-Residual          L2-NORM 
          0                 1           2             2   13     1       0.8278300461E-02       2   13    1         0.4675348665E+00      0.1065423577E+01
          0                 2           2             2   13     1      -0.7684626531E-03       4   13    1        -0.4514450367E-01      0.1044548324E+00
          0                 3           1             4   13     1       0.5130001029E-04       4   13    1         0.3111364638E-02      0.7117577445E-02

    ------------------------------------------------
       NWT REQUIRED            3 OUTER ITERATIONS 
       AND A TOTAL OF          5 INNER ITERATIONS.
    ------------------------------------------------

 NO OUTPUT CONTROL FOR STRESS PERIOD    4   TIME STEP    3
 
 SOLVING FOR HEAD 
                                                   Max.-Head-Change                         Max.-Flux-Residual
  Residual-Control   Outer-Iter.   Inner-Iter.     Column Row Layer    Maximum-Head-Change  Column Row Layer    Maximum-Flux-Residual          L2-NORM 
          0                 1           2             2   13     1       0.7639674698E-02       2   13    1         0.4314096696E+00      0.1011718689E+01
          0                 2           2             2   13     1      -0.7094780376E-03       2   13    1        -0.4118208294E-01      0.9932724014E-01
          0                 3           1             4   13     1       0.4655574285E-04       4   13    1         0.2822035290E-02      0.6780229549E-02

    ------------------------------------------------
       NWT REQUIRED            3 OUTER ITERATIONS 
       AND A TOTAL OF          5 INNER ITERATIONS.
    ------------------------------------------------

 NO OUTPUT CONTROL FOR STRESS PERIOD    4   TIME STEP    4
 
 SOLVING FOR HEAD 
                                                   Max.-Head-Change                         Max.-Flux-Residual
  Residual-Control   Outer-Iter.   Inner-Iter.     Column Row Layer    Maximum-Head-Change  Column Row Layer    Maximum-Flux-Residual          L2-NORM 
          0                 1           2             2   13     1       0.7051134970E-02       2   13    1         0.3981196161E+00      0.9638256189E+00
          0                 2           2             2   13     1      -0.6550642219E-03       2   13    1        -0.3801806407E-01      0.9471600239E-01
          0                 3           1             2    2     1       0.4352505581E-04       4   13    1         0.2555252590E-02      0.6476046340E-02

    ------------------------------------------------
       NWT REQUIRED            3 OUTER ITERATIONS 
       AND A TOTAL OF          5 INNER ITERATIONS.
    ------------------------------------------------

 NO OUTPUT CONTROL FOR STRESS PERIOD    4   TIME STEP    5
 
 SOLVING FOR HEAD 
                                                   Max.-Head-Change                         Max.-Flux-Residual
  Residual-Control   Outer-Iter.   Inner-Iter.     Column Row Layer    Maximum-Head-Change  Column Row Layer    Maximum-Flux-Residual          L2-NORM 
          0                 1           2             2    2     1       0.6530578794E-02       2   13    1         0.3674340446E+00      0.9211195136E+00
          0                 2           2             2    2     1      -0.6352488475E-03       2   13    1        -0.3510025729E-01      0.9062757206E-01
          0                 3           1             2    2     1       0.4325807581E-04       2    2    1         0.2386429274E-02      0.6206163982E-02

    ------------------------------------------------
       NWT REQUIRED            3 OUTER ITERATIONS 
       AND A TOTAL OF          5 INNER ITERATIONS.
    ------------------------------------------------

 NO OUTPUT CONTROL FOR STRESS PERIOD    4   TIME STEP    6
 
 SOLVING FOR HEAD 
                                                   Max.-Head-Change                         Max.-Flux-Residual
  Residual-Control   Outer-Iter.   Inner-Iter.     Column Row Layer    Maximum-Head-Change  Column Row Layer    Maximum-Flux-Residual          L2-NORM 
          0                 1           2             2    2     1       0.6490744694E-02       2   13    1         0.3391565589E+00      0.8830872342E+00
          0                 2           2             2    2     1      -0.6313740483E-03       2    2    1        -0.3388241289E-01      0.8698754178E-01
          0                 3           1             2    2     1       0.4299421683E-04       2    2    1         0.2371768941E-02      0.5966535889E-02

    ------------------------------------------------
       NWT REQUIRED            3 OUTER ITERATIONS 
       AND A TOTAL OF          5 INNER ITERATIONS.
    ------------------------------------------------

 NO OUTPUT CONTROL FOR STRESS PERIOD    4   TIME STEP    7
 
 SOLVING FOR HEAD 
                                                   Max.-Head-Change                         Max.-Flux-Residual
  Residual-Control   Outer-Iter.   Inner-Iter.     Column Row Layer    Maximum-Head-Change  Column Row Layer    Maximum-Flux-Residual          L2-NORM 
          0                 1           2             2    2     1       0.6451547572E-02       2    2    1         0.3367622684E+00      0.8492150641E+00
          0                 2           2             2    2     1      -0.6275612092E-03       2    2    1        -0.3367632998E-01      0.8374820532E-01
          0                 3           1             2    2     1       0.4273457702E-04       2    2    1         0.2357343149E-02      0.5753731505E-02

    ------------------------------------------------
       NWT REQUIRED            3 OUTER ITERATIONS 
       AND A TOTAL OF          5 INNER ITERATIONS.
    ------------------------------------------------

 NO OUTPUT CONTROL FOR STRESS PERIOD    4   TIME STEP    8
 
 SOLVING FOR HEAD 
                                                   Max.-Head-Change                         Max.-Flux-Residual
  Residual-Control   Outer-Iter.   Inner-Iter.     Column Row Layer    Maximum-Head-Change  Column Row Layer    Maximum-Flux-Residual          L2-NORM 
          0                 1           2             2    2     1       0.6412804297E-02       2    2    1         0.3347254048E+00      0.8190625492E+00
          0                 2           2             2    2     1      -0.6237925182E-03       2    2    1        -0.3347264186E-01      0.8086663199E-01
          0                 3           1             2    2     1       0.4247794320E-04       2    2    1         0.2343084980E-02      0.5564618212E-02

    ------------------------------------------------
       NWT REQUIRED            3 OUTER ITERATIONS 
       AND A TOTAL OF          5 INNER ITERATIONS.
    ------------------------------------------------

 NO OUTPUT CONTROL FOR STRESS PERIOD    4   TIME STEP    9
 
 SOLVING FOR HEAD 
                                                   Max.-Head-Change                         Max.-Flux-Residual
  Residual-Control   Outer-Iter.   Inner-Iter.     Column Row Layer    Maximum-Head-Change  Column Row Layer    Maximum-Flux-Residual          L2-NORM 
          0                 1           2             2    2     1       0.6374594176E-02       2    2    1         0.3327166124E+00      0.7921948598E+00
          0                 2           2             2    2     1      -0.6200756891E-03       2    2    1        -0.3327176089E-01      0.7829830130E-01
          0                 3           1             2    2     1       0.4222484078E-04       2    2    1         0.2329023318E-02      0.5395899446E-02

    ------------------------------------------------
       NWT REQUIRED            3 OUTER ITERATIONS 
       AND A TOTAL OF          5 INNER ITERATIONS.
    ------------------------------------------------

 NO OUTPUT CONTROL FOR STRESS PERIOD    4   TIME STEP   10
 
 SOLVING FOR HEAD 
                                                   Max.-Head-Change                         Max.-Flux-Residual
  Residual-Control   Outer-Iter.   Inner-Iter.     Column Row Layer    Maximum-Head-Change  Column Row Layer    Maximum-Flux-Residual          L2-NORM 
          0                 1           2             2    2     1       0.6336821867E-02       2    2    1         0.3307309230E+00      0.7682456956E+00
          0                 2           2             2    2     1      -0.6164014483E-03       2    2    1        -0.3307319026E-01      0.7600930606E-01
          0                 3           1             2    2     1       0.4197463926E-04       2    2    1         0.2315123403E-02      0.5245474927E-02

    ------------------------------------------------
       NWT REQUIRED            3 OUTER ITERATIONS 
       AND A TOTAL OF          5 INNER ITERATIONS.
    ------------------------------------------------

 NO OUTPUT CONTROL FOR STRESS PERIOD    4   TIME STEP   11
 
 SOLVING FOR HEAD 
                                                   Max.-Head-Change                         Max.-Flux-Residual
  Residual-Control   Outer-Iter.   Inner-Iter.     Column Row Layer    Maximum-Head-Change  Column Row Layer    Maximum-Flux-Residual          L2-NORM 
          0                 1           2             2    2     1       0.6299566920E-02       2    2    1         0.3287724739E+00      0.7468807676E+00
          0                 2           2             2    2     1      -0.6127775330E-03       2    2    1        -0.3287734372E-01      0.7396780827E-01
          0                 3           1             2    2     1       0.4172786406E-04       2    2    1         0.2301414147E-02      0.5111291030E-02

    ------------------------------------------------
       NWT REQUIRED            3 OUTER ITERATIONS 
       AND A TOTAL OF          5 INNER ITERATIONS.
    ------------------------------------------------

 NO OUTPUT CONTROL FOR STRESS PERIOD    4   TIME STEP   12
 
 SOLVING FOR HEAD 
                                                   Max.-Head-Change                         Max.-Flux-Residual
  Residual-Control   Outer-Iter.   Inner-Iter.     Column Row Layer    Maximum-Head-Change  Column Row Layer    Maximum-Flux-Residual          L2-NORM 
          0                 1           2             2    2     1       0.6262821188E-02       2    2    1         0.3268408495E+00      0.7278023089E+00
          0                 2           2             2    2     1      -0.6092031506E-03       2    2    1        -0.3268417964E-01      0.7214403746E-01
          0                 3           1             2    2     1       0.4148446241E-04       2    2    1         0.2287892682E-02      0.4991419050E-02

    ------------------------------------------------
       NWT REQUIRED            3 OUTER ITERATIONS 
       AND A TOTAL OF          5 INNER ITERATIONS.
    ------------------------------------------------

 NO OUTPUT CONTROL FOR STRESS PERIOD    4   TIME STEP   13
 
 SOLVING FOR HEAD 
                                                   Max.-Head-Change                         Max.-Flux-Residual
  Residual-Control   Outer-Iter.   Inner-Iter.     Column Row Layer    Maximum-Head-Change  Column Row Layer    Maximum-Flux-Residual          L2-NORM 
          0                 1           2             2    2     1       0.6226576539E-02       2    2    1         0.3249356272E+00      0.7107304552E+00
          0                 2           2             2    2     1      -0.6056775107E-03       2    2    1        -0.3249365586E-01      0.7051180458E-01
          0                 3           1             2    2     1       0.4124437939E-04       2    2    1         0.2274556003E-02      0.4884020470E-02

    ------------------------------------------------
       NWT REQUIRED            3 OUTER ITERATIONS 
       AND A TOTAL OF          5 INNER ITERATIONS.
    ------------------------------------------------

 NO OUTPUT CONTROL FOR STRESS PERIOD    4   TIME STEP   14
 
 SOLVING FOR HEAD 
                                                   Max.-Head-Change                         Max.-Flux-Residual
  Residual-Control   Outer-Iter.   Inner-Iter.     Column Row Layer    Maximum-Head-Change  Column Row Layer    Maximum-Flux-Residual          L2-NORM 
          0                 1           2             2    2     1       0.6190738554E-02       2    2    1         0.3230518444E+00      0.6954327544E+00
          0                 2           2             2    2     1      -0.6021914291E-03       2    2    1        -0.3230527603E-01      0.6904741996E-01
          0                 3           1             2    2     1       0.4100699065E-04       2    2    1         0.2261369448E-02      0.4787166760E-02

    ------------------------------------------------
       NWT REQUIRED            3 OUTER ITERATIONS 
       AND A TOTAL OF          5 INNER ITERATIONS.
    ------------------------------------------------

 NO OUTPUT CONTROL FOR STRESS PERIOD    4   TIME STEP   15
 
 SOLVING FOR HEAD 
                                                   Max.-Head-Change                         Max.-Flux-Residual
  Residual-Control   Outer-Iter.   Inner-Iter.     Column Row Layer    Maximum-Head-Change  Column Row Layer    Maximum-Flux-Residual          L2-NORM 
          0                 1           2             2    2     1       0.6155387396E-02       2    2    1         0.3211936876E+00      0.6816965238E+00
          0                 2           2             2    2     1      -0.5987527019E-03       2    2    1        -0.3211945882E-01      0.6773269871E-01
          0                 3           1             2    2     1       0.4077282588E-04       2    2    1         0.2248362238E-02      0.4701235123E-02

    ------------------------------------------------
       NWT REQUIRED            3 OUTER ITERATIONS 
       AND A TOTAL OF          5 INNER ITERATIONS.
    ------------------------------------------------

 NO OUTPUT CONTROL FOR STRESS PERIOD    4   TIME STEP   16
 
 SOLVING FOR HEAD 
                                                   Max.-Head-Change                         Max.-Flux-Residual
  Residual-Control   Outer-Iter.   Inner-Iter.     Column Row Layer    Maximum-Head-Change  Column Row Layer    Maximum-Flux-Residual          L2-NORM 
          0                 1           2             2    2     1       0.6120514978E-02       2    2    1         0.3193607723E+00      0.6693406811E+00
          0                 2           2             2    2     1      -0.5953605448E-03       2    2    1        -0.3193616583E-01      0.6654869535E-01
          0                 3           1             2    2     1       0.4054183324E-04       2    2    1         0.2235531750E-02      0.4622964601E-02

    ------------------------------------------------
       NWT REQUIRED            3 OUTER ITERATIONS 
       AND A TOTAL OF          5 INNER ITERATIONS.
    ------------------------------------------------

 NO OUTPUT CONTROL FOR STRESS PERIOD    4   TIME STEP   17
 
 SOLVING FOR HEAD 
                                                   Max.-Head-Change                         Max.-Flux-Residual
  Residual-Control   Outer-Iter.   Inner-Iter.     Column Row Layer    Maximum-Head-Change  Column Row Layer    Maximum-Flux-Residual          L2-NORM 
          0                 1           2             2    2     1       0.6086114131E-02       2    2    1         0.3175526791E+00      0.6581834074E+00
          0                 2           2             2    2     1      -0.5920142585E-03       2    2    1        -0.3175535508E-01      0.6547861353E-01
          0                 3           1             2    2     1       0.4031396327E-04       2    2    1         0.2222874988E-02      0.4552374955E-02

    ------------------------------------------------
       NWT REQUIRED            3 OUTER ITERATIONS 
       AND A TOTAL OF          5 INNER ITERATIONS.
    ------------------------------------------------

 NO OUTPUT CONTROL FOR STRESS PERIOD    4   TIME STEP   18
 
 SOLVING FOR HEAD 
                                                   Max.-Head-Change                         Max.-Flux-Residual
  Residual-Control   Outer-Iter.   Inner-Iter.     Column Row Layer    Maximum-Head-Change  Column Row Layer    Maximum-Flux-Residual          L2-NORM 
          0                 1           2             2    2     1       0.6052090883E-02       2    2    1         0.3157644944E+00      0.6480871972E+00
          0                 2           2             2    2     1      -0.5887047028E-03       2    2    1        -0.3157653520E-01      0.6450909565E-01
          0                 3           1             2    2     1       0.4008859493E-04       2    2    1         0.2210357589E-02      0.4488342151E-02

    ------------------------------------------------
       NWT REQUIRED            3 OUTER ITERATIONS 
       AND A TOTAL OF          5 INNER ITERATIONS.
    ------------------------------------------------

 NO OUTPUT CONTROL FOR STRESS PERIOD    4   TIME STEP   19
 
 SOLVING FOR HEAD 
                                                   Max.-Head-Change                         Max.-Flux-Residual
  Residual-Control   Outer-Iter.   Inner-Iter.     Column Row Layer    Maximum-Head-Change  Column Row Layer    Maximum-Flux-Residual          L2-NORM 
          0                 1           2             2    2     1       0.6018525482E-02       2    2    1         0.3140004295E+00      0.6389240942E+00
          0                 2           2             2    2     1      -0.5854396836E-03       2    2    1        -0.3140012732E-01      0.6362714457E-01
          0                 3           1             2    2     1       0.3986625980E-04       2    2    1         0.2198009063E-02      0.4429577986E-02

    ------------------------------------------------
       NWT REQUIRED            3 OUTER ITERATIONS 
       AND A TOTAL OF          5 INNER ITERATIONS.
    ------------------------------------------------

 NO OUTPUT CONTROL FOR STRESS PERIOD    4   TIME STEP   20
 
 SOLVING FOR HEAD 
                                                   Max.-Head-Change                         Max.-Flux-Residual
  Residual-Control   Outer-Iter.   Inner-Iter.     Column Row Layer    Maximum-Head-Change  Column Row Layer    Maximum-Flux-Residual          L2-NORM 
          0                 1           2             2    2     1       0.5985410749E-02       2    2    1         0.3122601035E+00      0.6305800237E+00
          0                 2           2             2    2     1      -0.5822185030E-03       2    2    1        -0.3122609338E-01      0.6282363216E-01
          0                 3           1             2    2     1       0.3964690959E-04       2    2    1         0.2185826703E-02      0.4376402763E-02

    ------------------------------------------------
       NWT REQUIRED            3 OUTER ITERATIONS 
       AND A TOTAL OF          5 INNER ITERATIONS.
    ------------------------------------------------

 NO OUTPUT CONTROL FOR STRESS PERIOD    4   TIME STEP   21
 
 SOLVING FOR HEAD 
                                                   Max.-Head-Change                         Max.-Flux-Residual
  Residual-Control   Outer-Iter.   Inner-Iter.     Column Row Layer    Maximum-Head-Change  Column Row Layer    Maximum-Flux-Residual          L2-NORM 
          0                 1           2             2    2     1       0.5952739973E-02       2    2    1         0.3105431442E+00      0.6229689428E+00
          0                 2           2             2    2     1      -0.5790405076E-03       2    2    1        -0.3105439614E-01      0.6208896390E-01
          0                 3           1             2    2     1       0.3943050005E-04       2    2    1         0.2173807899E-02      0.4326407697E-02

    ------------------------------------------------
       NWT REQUIRED            3 OUTER ITERATIONS 
       AND A TOTAL OF          5 INNER ITERATIONS.
    ------------------------------------------------

 NO OUTPUT CONTROL FOR STRESS PERIOD    4   TIME STEP   22
 
 SOLVING FOR HEAD 
                                                   Max.-Head-Change                         Max.-Flux-Residual
  Residual-Control   Outer-Iter.   Inner-Iter.     Column Row Layer    Maximum-Head-Change  Column Row Layer    Maximum-Flux-Residual          L2-NORM 
          0                 1           2             2    2     1       0.5920419299E-02       2    2    1         0.3088446607E+00      0.6159849811E+00
          0                 2           2             2    2     1      -0.5758965676E-03       2    2    1        -0.3088454650E-01      0.6141536588E-01
          0                 3           1             2    2     1       0.3921640919E-04       2    2    1         0.2161918418E-02      0.4282366592E-02

    ------------------------------------------------
       NWT REQUIRED            3 OUTER ITERATIONS 
       AND A TOTAL OF          5 INNER ITERATIONS.
    ------------------------------------------------

 NO OUTPUT CONTROL FOR STRESS PERIOD    4   TIME STEP   23
 
 SOLVING FOR HEAD 
                                                   Max.-Head-Change                         Max.-Flux-Residual
  Residual-Control   Outer-Iter.   Inner-Iter.     Column Row Layer    Maximum-Head-Change  Column Row Layer    Maximum-Flux-Residual          L2-NORM 
          0                 1           2             2    2     1       0.5888529809E-02       2    2    1         0.3071688723E+00      0.6095689376E+00
          0                 2           2             2    2     1      -0.5727945709E-03       2    2    1        -0.3071696638E-01      0.6079455114E-01
          0                 3           1             2    2     1       0.3900517546E-04       2    2    1         0.2150187841E-02      0.4240600404E-02

    ------------------------------------------------
       NWT REQUIRED            3 OUTER ITERATIONS 
       AND A TOTAL OF          5 INNER ITERATIONS.
    ------------------------------------------------

 NO OUTPUT CONTROL FOR STRESS PERIOD    4   TIME STEP   24
 
 SOLVING FOR HEAD 
                                                   Max.-Head-Change                         Max.-Flux-Residual
  Residual-Control   Outer-Iter.   Inner-Iter.     Column Row Layer    Maximum-Head-Change  Column Row Layer    Maximum-Flux-Residual          L2-NORM 
          0                 1           2             2    2     1       0.5857064406E-02       2    2    1         0.3055154403E+00      0.6036483312E+00
          0                 2           2             2    2     1      -0.5697338265E-03       2    2    1        -0.3055162196E-01      0.6022065514E-01
          0                 3           1             2    2     1       0.3879674985E-04       2    2    1         0.2138613727E-02      0.4202236599E-02

    ------------------------------------------------
       NWT REQUIRED            3 OUTER ITERATIONS 
       AND A TOTAL OF          5 INNER ITERATIONS.
    ------------------------------------------------

 NO OUTPUT CONTROL FOR STRESS PERIOD    4   TIME STEP   25
 
 SOLVING FOR HEAD 
                                                   Max.-Head-Change                         Max.-Flux-Residual
  Residual-Control   Outer-Iter.   Inner-Iter.     Column Row Layer    Maximum-Head-Change  Column Row Layer    Maximum-Flux-Residual          L2-NORM 
          0                 1           2             2    2     1       0.5826016811E-02       2    2    1         0.3038839966E+00      0.5981780172E+00
          0                 2           2             2    2     1      -0.5667137235E-03       2    2    1        -0.3038847637E-01      0.5968992671E-01
          0                 3           1             2    2     1       0.3859109214E-04       2    2    1         0.2127193536E-02      0.4166718241E-02

    ------------------------------------------------
       NWT REQUIRED            3 OUTER ITERATIONS 
       AND A TOTAL OF          5 INNER ITERATIONS.
    ------------------------------------------------

 NO OUTPUT CONTROL FOR STRESS PERIOD    4   TIME STEP   26
 
 SOLVING FOR HEAD 
                                                   Max.-Head-Change                         Max.-Flux-Residual
  Residual-Control   Outer-Iter.   Inner-Iter.     Column Row Layer    Maximum-Head-Change  Column Row Layer    Maximum-Flux-Residual          L2-NORM 
          0                 1           2             2    2     1       0.5795293960E-02       2    2    1         0.3022696725E+00      0.5930866872E+00
          0                 2           2             2    2     1      -0.5637252105E-03       2    2    1        -0.3022704280E-01      0.5919484204E-01
          0                 3           1             2    2     1       0.3838758578E-04       2    2    1         0.2115893185E-02      0.4133396156E-02

    ------------------------------------------------
       NWT REQUIRED            3 OUTER ITERATIONS 
       AND A TOTAL OF          5 INNER ITERATIONS.
    ------------------------------------------------

 NO OUTPUT CONTROL FOR STRESS PERIOD    4   TIME STEP   27
 
 SOLVING FOR HEAD 
                                                   Max.-Head-Change                         Max.-Flux-Residual
  Residual-Control   Outer-Iter.   Inner-Iter.     Column Row Layer    Maximum-Head-Change  Column Row Layer    Maximum-Flux-Residual          L2-NORM 
          0                 1           2             2    2     1       0.5764977044E-02       2    2    1         0.3006767291E+00      0.5883461591E+00
          0                 2           2             2    2     1      -0.5607761839E-03       2    2    1        -0.3006774729E-01      0.5873281583E-01
          0                 3           1             2    2     1       0.3818676875E-04       2    2    1         0.2104742531E-02      0.4101958269E-02

    ------------------------------------------------
       NWT REQUIRED            3 OUTER ITERATIONS 
       AND A TOTAL OF          5 INNER ITERATIONS.
    ------------------------------------------------

 NO OUTPUT CONTROL FOR STRESS PERIOD    4   TIME STEP   28
 
 SOLVING FOR HEAD 
                                                   Max.-Head-Change                         Max.-Flux-Residual
  Residual-Control   Outer-Iter.   Inner-Iter.     Column Row Layer    Maximum-Head-Change  Column Row Layer    Maximum-Flux-Residual          L2-NORM 
          0                 1           2             2    2     1       0.5735060105E-02       2    2    1         0.2991048331E+00      0.5839165056E+00
          0                 2           2             2    2     1      -0.5578660642E-03       2    2    1        -0.2991055658E-01      0.5830111832E-01
          0                 3           1             2    2     1       0.3798859962E-04       2    2    1         0.2093739157E-02      0.4072782094E-02

    ------------------------------------------------
       NWT REQUIRED            3 OUTER ITERATIONS 
       AND A TOTAL OF          5 INNER ITERATIONS.
    ------------------------------------------------

 NO OUTPUT CONTROL FOR STRESS PERIOD    4   TIME STEP   29
 
 SOLVING FOR HEAD 
                                                   Max.-Head-Change                         Max.-Flux-Residual
  Residual-Control   Outer-Iter.   Inner-Iter.     Column Row Layer    Maximum-Head-Change  Column Row Layer    Maximum-Flux-Residual          L2-NORM 
          0                 1           2             2    2     1       0.4577995966E-02       2    2    1         0.2386111534E+00      0.5559196019E+00
          0                 2           2             2    2     1      -0.4453148114E-03       2    2    1        -0.2386115789E-01      0.5518052966E-01
          0                 3           1             2    2     1       0.3032428173E-04       2    2    1         0.1670281384E-02      0.3825101023E-02

    ------------------------------------------------
       NWT REQUIRED            3 OUTER ITERATIONS 
       AND A TOTAL OF          5 INNER ITERATIONS.
    ------------------------------------------------

 NO OUTPUT CONTROL FOR STRESS PERIOD    4   TIME STEP   30



 STREAM LISTING     PERIOD      4   STEP       30

 LAYER ROW COL. STREAM  RCH.  FLOW INTO     FLOW TO   FLOW OUT OF   OVRLND.     DIRECT     STREAM       STREAM     STREAM     STREAM   STREAMBED  STREAMBED
                SEG.NO.  NO.  STRM. RCH.    AQUIFER    STRM. RCH.    RUNOFF     PRECIP       ET          HEAD       DEPTH      WIDTH   CONDCTNC.   GRADIENT

   1    1    1     1     1    4.6685E+01  3.2585E-01   4.6359E+01  0.000E+00  0.000E+00  0.000E+00  1.09443E+03  1.378E+00  1.654E+01  7.443E-02  1.459E+00
   1    2    2     1     2    4.6359E+01  5.0484E-01   4.5855E+01  0.000E+00  0.000E+00  0.000E+00  1.08943E+03  1.375E+00  1.648E+01  1.154E-01  1.458E+00
   1    3    3     1     3    4.5855E+01  4.3074E-01   4.5424E+01  0.000E+00  0.000E+00  0.000E+00  1.08379E+03  1.372E+00  1.642E+01  9.852E-02  1.457E+00
   1    3    4     1     4    4.5424E+01  3.9680E-01   4.5027E+01  0.000E+00  0.000E+00  0.000E+00  1.07878E+03  1.369E+00  1.636E+01  9.082E-02  1.456E+00
   1    4    5     2     1    4.3027E+01  3.6413E-01   4.2663E+01  0.000E+00  0.000E+00  0.000E+00  1.07360E+03  1.668E+00  1.200E+01  7.800E-02  1.556E+00
   1    5    6     2     2    4.2663E+01  2.7965E-01   4.2383E+01  0.000E+00  0.000E+00  0.000E+00  1.06817E+03  1.661E+00  1.200E+01  6.000E-02  1.554E+00
   1    6    6     2     3    4.2383E+01  2.7926E-01   4.2104E+01  0.000E+00  0.000E+00  0.000E+00  1.06345E+03  1.654E+00  1.200E+01  6.000E-02  1.551E+00
   1    7    6     2     4    4.2104E+01  2.7886E-01   4.1825E+01  0.000E+00  0.000E+00  0.000E+00  1.05872E+03  1.648E+00  1.200E+01  6.000E-02  1.549E+00
   1    8    6     2     5    4.1825E+01  2.7847E-01   4.1547E+01  0.000E+00  0.000E+00  0.000E+00  1.05400E+03  1.641E+00  1.200E+01  6.000E-02  1.547E+00
   1    3    5     3     1    2.0000E+00  2.8252E-01   1.7175E+00  0.000E+00  0.000E+00  0.000E+00  1.07555E+03  1.909E+00  9.636E+00  7.227E-02  1.955E+00
   1    3    6     3     2    1.7175E+00  2.4905E-01   1.4684E+00  0.000E+00  0.000E+00  0.000E+00  1.07264E+03  1.727E+00  8.909E+00  6.682E-02  1.864E+00
   1    3    7     3     3    1.4684E+00  1.9718E-01   1.2712E+00  0.000E+00  0.000E+00  0.000E+00  1.06987E+03  1.555E+00  8.218E+00  5.547E-02  1.777E+00
   1    4    8     3     4    1.2712E+00  2.2567E-01   1.0456E+00  0.000E+00  0.000E+00  0.000E+00  1.06682E+03  1.364E+00  7.455E+00  6.709E-02  1.682E+00
   1    5    8     3     5    1.0456E+00  1.5790E-01   8.8768E-01  0.000E+00  0.000E+00  0.000E+00  1.06362E+03  1.164E+00  6.655E+00  4.991E-02  1.582E+00
   1    6    8     3     6    8.8768E-01  5.5980E-02   8.3170E-01  0.000E+00  0.000E+00  0.000E+00  1.06158E+03  1.036E+00  6.145E+00  1.844E-02  1.518E+00
   1    5   10     4     1    1.0000E+01  9.0919E-02   9.9091E+00  0.000E+00  0.000E+00  0.000E+00  1.07836E+03  6.368E-01  1.000E+01  2.500E-02  1.212E+00
   1    5    9     4     2    9.9091E+00  1.8158E-01   9.7275E+00  0.000E+00  0.000E+00  0.000E+00  1.07154E+03  6.315E-01  1.000E+01  5.000E-02  1.211E+00
   1    6    8     4     3    9.7275E+00  1.2689E-01   9.6006E+00  0.000E+00  0.000E+00  0.000E+00  1.06381E+03  6.256E-01  1.000E+01  3.500E-02  1.209E+00
   1    6    8     5     1    1.0432E+01  2.2686E-01   1.0205E+01  0.000E+00  0.000E+00  0.000E+00  1.05868E+03  6.790E-01  1.542E+01  6.166E-02  1.226E+00
   1    7    7     5     2    1.0205E+01  2.7894E-01   9.9265E+00  0.000E+00  0.000E+00  0.000E+00  1.05417E+03  6.732E-01  1.519E+01  7.594E-02  1.224E+00
   1    8    7     5     3    9.9265E+00  1.9221E-01   9.7343E+00  0.000E+00  0.000E+00  0.000E+00  1.04992E+03  6.676E-01  1.497E+01  5.241E-02  1.223E+00
   1    8    6     5     4    9.7343E+00  1.3577E-01   9.5985E+00  0.000E+00  0.000E+00  0.000E+00  1.04691E+03  6.637E-01  1.482E+01  3.706E-02  1.221E+00
   1    9    6     6     1    5.1145E+01  2.9237E-01   5.0853E+01  0.000E+00  0.000E+00  0.000E+00  1.04460E+03  1.873E+00  1.200E+01  6.000E-02  1.624E+00
   1   10    7     6     2    5.0853E+01  2.9199E-01   5.0561E+01  0.000E+00  0.000E+00  0.000E+00  1.04005E+03  1.866E+00  1.200E+01  6.000E-02  1.622E+00
   1   11    7     6     3    5.0561E+01  2.9160E-01   5.0269E+01  0.000E+00  0.000E+00  0.000E+00  1.03550E+03  1.860E+00  1.200E+01  6.000E-02  1.620E+00
   1   12    7     6     4    5.0269E+01  2.9121E-01   4.9978E+01  0.000E+00  0.000E+00  0.000E+00  1.03094E+03  1.854E+00  1.200E+01  6.000E-02  1.618E+00
   1   13    7     6     5    4.9978E+01  1.5046E-02   4.9963E+01  0.000E+00  0.000E+00  0.000E+00  1.02776E+03  1.850E+00  1.200E+01  2.400E-02  2.090E-01
   1   14    9     7     1    1.5000E+02  1.3355E+00   1.4866E+02  0.000E+00  0.000E+00  0.000E+00  1.03987E+03  2.288E+00  5.529E+01  5.593E-01  7.959E-01
   1   13    8     7     2    1.4866E+02  1.8270E+00   1.4684E+02  0.000E+00  0.000E+00  0.000E+00  1.03478E+03  2.279E+00  5.526E+01  6.148E-01  9.906E-01
   1   13    7     7     3    1.4684E+02  1.4284E+00   1.4541E+02  0.000E+00  0.000E+00  0.000E+00  1.02969E+03  2.271E+00  5.522E+01  5.585E-01  8.526E-01
   1   13    6     8     1    1.9537E+02  9.7131E-01   1.9440E+02  0.000E+00  0.000E+00  0.000E+00  1.02498E+03  3.107E+00  4.506E+01  4.591E-01  7.052E-01
   1   13    5     8     2    1.9440E+02  1.7796E-01   1.9422E+02  0.000E+00  0.000E+00  0.000E+00  1.01873E+03  3.104E+00  4.501E+01  4.586E-01  1.293E-01
   1   13    4     8     3    1.9422E+02 -2.6466E+00   1.9687E+02  0.000E+00  0.000E+00  0.000E+00  1.01249E+03  3.111E+00  4.511E+01  4.597E+00 -1.919E-01
   1   13    3     8     4    1.9687E+02 -3.8111E+00   2.0068E+02  0.000E+00  0.000E+00  0.000E+00  1.00626E+03  3.130E+00  4.539E+01  4.626E+00 -2.746E-01
   1   13    2     8     5    2.0068E+02 -2.7018E+00   2.0338E+02  0.000E+00  0.000E+00  0.000E+00  1.00002E+03  3.150E+00  4.567E+01  4.654E+00 -1.935E-01
   1   13    1     8     6    2.0338E+02 -2.0096E+00   2.0539E+02  0.000E+00  0.000E+00  0.000E+00  9.95038E+02  3.163E+00  4.587E+01  2.805E+00 -2.388E-01
   1    8    6     9     1    0.0000E+00  0.0000E+00   0.0000E+00  0.000E+00  0.000E+00  0.000E+00  1.07875E+03  0.000E+00  4.000E+00  0.000E+00  1.000E+00
   1    8    5     9     2    0.0000E+00  0.0000E+00   0.0000E+00  0.000E+00  0.000E+00  0.000E+00  1.07825E+03  0.000E+00  4.000E+00  0.000E+00  1.000E+00





UNSATURATED ZONE PACKAGE VOLUMETRIC BUDGET FOR  TIME STEP    30 STRESS PERIOD    4
  ------------------------------------------------------------------------------



     CUMULATIVE VOLUMES      L**3       RATES FOR THIS TIME STEP      L**3/T
     ------------------                 ------------------------

           IN:                                      IN:
           ---                                      ---
        INFILTRATION =     6759998.6182          INFILTRATION =           0.8475

          OUT:                                     OUT:
          ----                                     ----
              UZF ET =     5917485.4539                UZF ET =           0.7500
        UZF RECHARGE =       73224.0000          UZF RECHARGE =       0.0000E+00

            IN - OUT =      769289.1644              IN - OUT =       9.7500E-02

          STORAGE:                                 STORAGE:
          --------                                 --------
      STORAGE CHANGE =      769289.2225        STORAGE CHANGE =       9.7500E-02

 PERCENT DISCREPANCY IS DIFFERENCE BETWEEN IN-OUT MINUS CHANGE IN STORAGE
 DIVIDED BY THE AVERAGE OF IN AND OUT TIMES 100

 PERCENT DISCREPANCY =           0.00     PERCENT DISCREPANCY =           0.00






1
  VOLUMETRIC BUDGET FOR AGRICULTURAL FIELDS AT  END OF TIME STEP   30, STRESS PERIOD   4
  ------------------------------------------------------------------------------

     CUMULATIVE VOLUMES      L**3       RATES FOR THIS TIME STEP      L**3/T
     ------------------                 ------------------------

           IN:                                      IN:
           ---                                      ---
               AG WELLS  =           0.0000                 AG WELLS  =           0.0000
      DIVERSION SEGMENTS =           0.0000        DIVERSION SEGMENTS =           0.0000
       IRRIGATION PONDS  =           0.0000         IRRIGATION PONDS  =           0.0000
           GW IRRIGATION =           0.0000             GW IRRIGATION =           0.0000
           SW IRRIGATION =           0.0000             SW IRRIGATION =           0.0000
        SYSTEM LOSSES GW =           0.0000          SYSTEM LOSSES GW =           0.0000
        SYSTEM LOSSES SW =           0.0000          SYSTEM LOSSES SW =           0.0000

                TOTAL IN =           0.0000                  TOTAL IN =           0.0000

          OUT:                                     OUT:
          ----                                     ----
               AG WELLS  =           0.0000                 AG WELLS  =           0.0000
      DIVERSION SEGMENTS =           0.0000        DIVERSION SEGMENTS =           0.0000
       IRRIGATION PONDS  =           0.0000         IRRIGATION PONDS  =           0.0000
           GW IRRIGATION =           0.0000             GW IRRIGATION =           0.0000
           SW IRRIGATION =           0.0000             SW IRRIGATION =           0.0000
        SYSTEM LOSSES GW =           0.0000          SYSTEM LOSSES GW =           0.0000
        SYSTEM LOSSES SW =           0.0000          SYSTEM LOSSES SW =           0.0000

               TOTAL OUT =           0.0000                 TOTAL OUT =           0.0000

                IN - OUT =           0.0000                  IN - OUT =           0.0000

     PERCENT DISCREPANCY =           0.00         PERCENT DISCREPANCY =           0.00



1
  VOLUMETRIC BUDGET FOR ENTIRE MODEL AT END OF TIME STEP   30, STRESS PERIOD   4
  ------------------------------------------------------------------------------

     CUMULATIVE VOLUMES      L**3       RATES FOR THIS TIME STEP      L**3/T
     ------------------                 ------------------------

           IN:                                      IN:
           ---                                      ---
             STORAGE     =     4352803.5000               STORAGE     =           0.9339
       CONSTANT HEAD     =           0.0000         CONSTANT HEAD     =           0.0000
     HEAD DEP BOUNDS     =     2278729.0000       HEAD DEP BOUNDS     =           0.2857
      STREAM LEAKAGE     =    95891936.0000        STREAM LEAKAGE     =          12.4623
        UZF RECHARGE     =       73223.9531          UZF RECHARGE     =           0.0000
               GW ET     =           0.0000                 GW ET     =           0.0000
     SURFACE LEAKAGE     =           0.0000       SURFACE LEAKAGE     =           0.0000
           AG WELLS      =           0.0000             AG WELLS      =           0.0000

                TOTAL IN =   102596696.0000                  TOTAL IN =          13.6819

          OUT:                                     OUT:
          ----                                     ----
             STORAGE     =    18028010.0000               STORAGE     =           2.2164
       CONSTANT HEAD     =           0.0000         CONSTANT HEAD     =           0.0000
     HEAD DEP BOUNDS     =     2316606.7500       HEAD DEP BOUNDS     =           0.2947
      STREAM LEAKAGE     =    82252224.0000        STREAM LEAKAGE     =          11.1691
        UZF RECHARGE     =           0.0000          UZF RECHARGE     =           0.0000
               GW ET     =        3763.8860                 GW ET     =       2.1214E-03
     SURFACE LEAKAGE     =           0.0000       SURFACE LEAKAGE     =           0.0000
           AG WELLS      =           0.0000             AG WELLS      =           0.0000

               TOTAL OUT =   102600600.0000                 TOTAL OUT =          13.6823

                IN - OUT =       -3904.0000                  IN - OUT =      -3.6430E-04

     PERCENT DISCREPANCY =          -0.00         PERCENT DISCREPANCY =          -0.00






         TIME SUMMARY AT END OF TIME STEP   30 IN STRESS PERIOD    4
                    SECONDS     MINUTES      HOURS       DAYS        YEARS
                    -----------------------------------------------------------
   TIME STEP LENGTH  87667.      1461.1      24.352      1.0147     2.77799E-03
 STRESS PERIOD TIME 2.63000E+06  43833.      730.56      30.440     8.33397E-02
         TOTAL TIME 7.97639E+06 1.32940E+05  2215.7      92.319     0.25276    
1
1
                            STRESS PERIOD NO.    5, LENGTH =   2630000.    
                            -----------------------------------------------

                              NUMBER OF TIME STEPS =    30

                               MULTIPLIER FOR DELT =     1.000

                            INITIAL TIME STEP SIZE =   87666.66    

 REUSING NON-PARAMETER GHB CELLS FROM LAST STRESS PERIOD

      2 GHB CELLS

 REUSING STREAM SEGMENT DATA FROM LAST STRESS PERIOD



            AREAL INFILTRATION RATE
 READING ON UNIT   19 WITH FORMAT: (FREE)              

            1           2           3           4           5           6           7           8           9          10
 ........................................................................................................................
   1   1.0000E-10  2.0000E-10   0.000       0.000       0.000       0.000       0.000       0.000       0.000       0.000    
   2   2.0000E-10  1.0000E-10  2.0000E-10   0.000       0.000      8.0000E-10  8.0000E-10  5.0000E-10   0.000       0.000    
   3    0.000      5.0000E-10  1.0000E-10  1.0000E-10  8.0000E-10  8.0000E-10  5.0000E-10  5.0000E-10   0.000       0.000    
   4   8.0000E-10  5.0000E-10  1.0000E-10  1.0000E-10  1.0000E-10  1.0000E-10  1.0000E-10  1.0000E-10  2.0000E-10   0.000    
   5   8.0000E-10  5.0000E-10  1.0000E-10  1.0000E-10  1.0000E-10  1.0000E-10  1.0000E-10  1.0000E-10  1.0000E-10  1.0000E-10
   6   8.0000E-10  5.0000E-10  5.0000E-10  2.0000E-10  2.0000E-10  1.0000E-10  1.0000E-10  1.0000E-10  1.0000E-10  5.0000E-10
   7   8.0000E-10  5.0000E-10  5.0000E-10  2.0000E-10  2.0000E-10  1.0000E-10  1.0000E-10  2.0000E-10  2.0000E-10   0.000    
   8    0.000      5.0000E-10  5.0000E-10  2.0000E-10  2.0000E-10  1.0000E-10  1.0000E-10  2.0000E-10  5.0000E-10   0.000    
   9    0.000      5.0000E-10  5.0000E-10  2.0000E-10  2.0000E-10  1.0000E-10  1.0000E-10  2.0000E-10  5.0000E-10   0.000    
  10    0.000      5.0000E-10  5.0000E-10  2.0000E-10  2.0000E-10  1.0000E-10  1.0000E-10  2.0000E-10  5.0000E-10  8.0000E-10
  11    0.000      1.0000E-10  1.0000E-10  1.0000E-10  1.0000E-10  1.0000E-10  1.0000E-10  2.0000E-10  5.0000E-10   0.000    
  12   1.0000E-10  1.0000E-10  1.0000E-10  1.0000E-10  1.0000E-10  1.0000E-10  1.0000E-10  1.0000E-10  2.0000E-10   0.000    
  13   1.0000E-10  1.0000E-10  2.0000E-10  2.0000E-10  2.0000E-10  2.0000E-10  2.0000E-10  1.0000E-10  1.0000E-10   0.000    
  14    0.000      2.0000E-10  5.0000E-10  5.0000E-10  5.0000E-10  5.0000E-10  5.0000E-10  2.0000E-10  1.0000E-10   0.000    
  15    0.000       0.000      8.0000E-10  8.0000E-10  8.0000E-10  8.0000E-10   0.000       0.000       0.000       0.000    

                  ET RATE =  2.500000E-08

 USING ET EXTINCTION DEPTH FROM PREVIOUS STRESS PERIOD. CURRENT PERIOD IS:       5

 USING EXTINCTION WATER CONTENT FROM PREVIOUS STRESS PERIOD. CURRENT PERIOD IS:       5

 USING AIR ENTRY PRESSURE FROM PREVIOUS STRESS PERIOD. CURRENT PERIOD IS:       5

 USING ROOT PRESSURE HEAD FROM PREVIOUS STRESS PERIOD. CURRENT PERIOD IS:       5

 USING ROOT ACTIVITY FROM PREVIOUS STRESS PERIOD. CURRENT PERIOD IS:       5

 PROCESSING AG STRESS PERIOD DATA

 READING AG STRESS PERIOD DATA

 READING IRRIGATION SEGMENT

 READING IRRIGATION WELL

 READING SUPPLEMENTAL WELL

 NO IRRPOND OR REUSING IRRPOND DATA FROM LAST STRESS PERIOD

 END PROCESSING AG STRESS PERIOD DATA OPTIONS
 
 SOLVING FOR HEAD 
                                                   Max.-Head-Change                         Max.-Flux-Residual
  Residual-Control   Outer-Iter.   Inner-Iter.     Column Row Layer    Maximum-Head-Change  Column Row Layer    Maximum-Flux-Residual          L2-NORM 
          0                 1           2             4   13     1      -0.1329788688E-01       4   13    1        -0.7786415509E+00      0.1989032279E+01
          0                 2           2             4   13     1       0.1282893885E-02       4   13    1         0.7723460341E-01      0.1965530505E+00
          0                 3           1             4   13     1      -0.8635889419E-04       4   13    1        -0.5345459153E-02      0.1356560364E-01

    ------------------------------------------------
       NWT REQUIRED            3 OUTER ITERATIONS 
       AND A TOTAL OF          5 INNER ITERATIONS.
    ------------------------------------------------

 NO OUTPUT CONTROL FOR STRESS PERIOD    5   TIME STEP    1
 
 SOLVING FOR HEAD 
                                                   Max.-Head-Change                         Max.-Flux-Residual
  Residual-Control   Outer-Iter.   Inner-Iter.     Column Row Layer    Maximum-Head-Change  Column Row Layer    Maximum-Flux-Residual          L2-NORM 
          0                 1           2             4   13     1      -0.1180658924E-01       4   13    1        -0.6910507645E+00      0.1891250962E+01
          0                 2           2             4   13     1       0.1138839559E-02       4   13    1         0.6853518095E-01      0.1872956570E+00
          0                 3           1             4    7     1      -0.7747958791E-04       4   13    1        -0.4742410641E-02      0.1294217927E-01

    ------------------------------------------------
       NWT REQUIRED            3 OUTER ITERATIONS 
       AND A TOTAL OF          5 INNER ITERATIONS.
    ------------------------------------------------

 OUTPUT CONTROL FOR STRESS PERIOD    5   TIME STEP    2
    PRINT BUDGET
    SAVE BUDGET
 UBDSV1 SAVING "         STORAGE" ON UNIT 102 AT TIME STEP 2, STRESS PERIOD 5
 UBDSV2 SAVING "   CONSTANT HEAD" ON UNIT 102 AT TIME STEP 2, STRESS PERIOD 5
 UBDSV1 SAVING "FLOW RIGHT FACE " ON UNIT 102 AT TIME STEP 2, STRESS PERIOD 5
 UBDSV1 SAVING "FLOW FRONT FACE " ON UNIT 102 AT TIME STEP 2, STRESS PERIOD 5

  HEAD DEP BOUNDS   PERIOD    5   STEP     2
 BOUNDARY      1   LAYER   1   ROW    13   COL     1   RATE   -0.294284    
 BOUNDARY      2   LAYER   1   ROW    14   COL     9   RATE    0.285737    



 STREAM LISTING     PERIOD      5   STEP        2

 LAYER ROW COL. STREAM  RCH.  FLOW INTO     FLOW TO   FLOW OUT OF   OVRLND.     DIRECT     STREAM       STREAM     STREAM     STREAM   STREAMBED  STREAMBED
                SEG.NO.  NO.  STRM. RCH.    AQUIFER    STRM. RCH.    RUNOFF     PRECIP       ET          HEAD       DEPTH      WIDTH   CONDCTNC.   GRADIENT

   1    1    1     1     1    2.1000E+01  2.2591E-01   2.0774E+01  0.000E+00  0.000E+00  0.000E+00  1.09416E+03  1.115E+00  1.220E+01  5.490E-02  1.372E+00
   1    2    2     1     2    2.0774E+01  3.4916E-01   2.0425E+01  0.000E+00  0.000E+00  0.000E+00  1.08917E+03  1.110E+00  1.214E+01  8.495E-02  1.370E+00
   1    3    3     1     3    2.0425E+01  2.9709E-01   2.0128E+01  0.000E+00  0.000E+00  0.000E+00  1.08352E+03  1.105E+00  1.206E+01  7.238E-02  1.368E+00
   1    3    4     1     4    2.0128E+01  2.7299E-01   1.9855E+01  0.000E+00  0.000E+00  0.000E+00  1.07851E+03  1.100E+00  1.200E+01  6.659E-02  1.367E+00
   1    4    5     2     1    1.7855E+01  3.1056E-01   1.7544E+01  0.000E+00  0.000E+00  0.000E+00  1.07292E+03  9.816E-01  1.200E+01  7.800E-02  1.327E+00
   1    5    6     2     2    1.7544E+01  2.3834E-01   1.7306E+01  0.000E+00  0.000E+00  0.000E+00  1.06748E+03  9.724E-01  1.200E+01  6.000E-02  1.324E+00
   1    6    6     2     3    1.7306E+01  2.3786E-01   1.7068E+01  0.000E+00  0.000E+00  0.000E+00  1.06276E+03  9.644E-01  1.200E+01  6.000E-02  1.321E+00
   1    7    6     2     4    1.7068E+01  2.3738E-01   1.6831E+01  0.000E+00  0.000E+00  0.000E+00  1.05803E+03  9.564E-01  1.200E+01  6.000E-02  1.319E+00
   1    8    6     2     5    1.6831E+01  2.3690E-01   1.6594E+01  0.000E+00  0.000E+00  0.000E+00  1.05331E+03  9.483E-01  1.200E+01  6.000E-02  1.316E+00
   1    3    5     3     1    2.0000E+00  2.8252E-01   1.7175E+00  0.000E+00  0.000E+00  0.000E+00  1.07555E+03  1.909E+00  9.636E+00  7.227E-02  1.955E+00
   1    3    6     3     2    1.7175E+00  2.4905E-01   1.4684E+00  0.000E+00  0.000E+00  0.000E+00  1.07264E+03  1.727E+00  8.909E+00  6.682E-02  1.864E+00
   1    3    7     3     3    1.4684E+00  1.9718E-01   1.2712E+00  0.000E+00  0.000E+00  0.000E+00  1.06987E+03  1.555E+00  8.218E+00  5.547E-02  1.777E+00
   1    4    8     3     4    1.2712E+00  2.2567E-01   1.0456E+00  0.000E+00  0.000E+00  0.000E+00  1.06682E+03  1.364E+00  7.455E+00  6.709E-02  1.682E+00
   1    5    8     3     5    1.0456E+00  1.5790E-01   8.8768E-01  0.000E+00  0.000E+00  0.000E+00  1.06362E+03  1.164E+00  6.655E+00  4.991E-02  1.582E+00
   1    6    8     3     6    8.8768E-01  5.5980E-02   8.3170E-01  0.000E+00  0.000E+00  0.000E+00  1.06158E+03  1.036E+00  6.145E+00  1.844E-02  1.518E+00
   1    5   10     4     1    1.0000E+01  9.0919E-02   9.9091E+00  0.000E+00  0.000E+00  0.000E+00  1.07836E+03  6.368E-01  1.000E+01  2.500E-02  1.212E+00
   1    5    9     4     2    9.9091E+00  1.8158E-01   9.7275E+00  0.000E+00  0.000E+00  0.000E+00  1.07154E+03  6.315E-01  1.000E+01  5.000E-02  1.211E+00
   1    6    8     4     3    9.7275E+00  1.2689E-01   9.6006E+00  0.000E+00  0.000E+00  0.000E+00  1.06381E+03  6.256E-01  1.000E+01  3.500E-02  1.209E+00
   1    6    8     5     1    1.0432E+01  2.2686E-01   1.0205E+01  0.000E+00  0.000E+00  0.000E+00  1.05868E+03  6.790E-01  1.542E+01  6.166E-02  1.226E+00
   1    7    7     5     2    1.0205E+01  2.7894E-01   9.9265E+00  0.000E+00  0.000E+00  0.000E+00  1.05417E+03  6.732E-01  1.519E+01  7.594E-02  1.224E+00
   1    8    7     5     3    9.9265E+00  1.9221E-01   9.7343E+00  0.000E+00  0.000E+00  0.000E+00  1.04992E+03  6.676E-01  1.497E+01  5.241E-02  1.223E+00
   1    8    6     5     4    9.7343E+00  1.3577E-01   9.5985E+00  0.000E+00  0.000E+00  0.000E+00  1.04691E+03  6.637E-01  1.482E+01  3.706E-02  1.221E+00
   1    9    6     6     1    2.6192E+01  2.5512E-01   2.5937E+01  0.000E+00  0.000E+00  0.000E+00  1.04398E+03  1.252E+00  1.200E+01  6.000E-02  1.417E+00
   1   10    7     6     2    2.5937E+01  2.5468E-01   2.5682E+01  0.000E+00  0.000E+00  0.000E+00  1.03943E+03  1.245E+00  1.200E+01  6.000E-02  1.415E+00
   1   11    7     6     3    2.5682E+01  2.5424E-01   2.5428E+01  0.000E+00  0.000E+00  0.000E+00  1.03487E+03  1.237E+00  1.200E+01  6.000E-02  1.412E+00
   1   12    7     6     4    2.5428E+01  2.5379E-01   2.5174E+01  0.000E+00  0.000E+00  0.000E+00  1.03032E+03  1.230E+00  1.200E+01  6.000E-02  1.410E+00
   1   13    7     6     5    2.5174E+01  5.1785E-05   2.5174E+01  0.000E+00  0.000E+00  0.000E+00  1.02714E+03  1.226E+00  1.200E+01  2.400E-02  7.192E-04
   1   14    9     7     1    1.5000E+02  1.3355E+00   1.4866E+02  0.000E+00  0.000E+00  0.000E+00  1.03987E+03  2.288E+00  5.529E+01  5.593E-01  7.959E-01
   1   13    8     7     2    1.4866E+02  1.8267E+00   1.4684E+02  0.000E+00  0.000E+00  0.000E+00  1.03478E+03  2.279E+00  5.526E+01  6.148E-01  9.904E-01
   1   13    7     7     3    1.4684E+02  1.4279E+00   1.4541E+02  0.000E+00  0.000E+00  0.000E+00  1.02969E+03  2.271E+00  5.522E+01  5.585E-01  8.523E-01
   1   13    6     8     1    1.7058E+02  8.5698E-01   1.6973E+02  0.000E+00  0.000E+00  0.000E+00  1.02483E+03  2.953E+00  4.282E+01  4.364E-01  6.546E-01
   1   13    5     8     2    1.6973E+02  1.0261E-01   1.6962E+02  0.000E+00  0.000E+00  0.000E+00  1.01858E+03  2.950E+00  4.278E+01  4.359E-01  7.847E-02
   1   13    4     8     3    1.6962E+02 -3.0806E+00   1.7271E+02  0.000E+00  0.000E+00  0.000E+00  1.01233E+03  2.960E+00  4.292E+01  4.373E+00 -2.348E-01
   1   13    3     8     4    1.7271E+02 -4.1869E+00   1.7689E+02  0.000E+00  0.000E+00  0.000E+00  1.00611E+03  2.983E+00  4.326E+01  4.408E+00 -3.166E-01
   1   13    2     8     5    1.7689E+02 -3.1230E+00   1.8002E+02  0.000E+00  0.000E+00  0.000E+00  9.99881E+02  3.006E+00  4.359E+01  4.442E+00 -2.343E-01
   1   13    1     8     6    1.8002E+02 -2.2674E+00   1.8228E+02  0.000E+00  0.000E+00  0.000E+00  9.94898E+02  3.023E+00  4.384E+01  2.680E+00 -2.820E-01
   1    8    6     9     1    0.0000E+00  0.0000E+00   0.0000E+00  0.000E+00  0.000E+00  0.000E+00  1.07875E+03  0.000E+00  4.000E+00  0.000E+00  1.000E+00
   1    8    5     9     2    0.0000E+00  0.0000E+00   0.0000E+00  0.000E+00  0.000E+00  0.000E+00  1.07825E+03  0.000E+00  4.000E+00  0.000E+00  1.000E+00



 UBDSV3 SAVING "           GW ET" ON UNIT  61 AT TIME STEP 2, STRESS PERIOD 5
 UBDSV3 SAVING "    UZF RECHARGE" ON UNIT  61 AT TIME STEP 2, STRESS PERIOD 5
 UBDSV3 SAVING " SURFACE LEAKAGE" ON UNIT  61 AT TIME STEP 2, STRESS PERIOD 5
 UBDSV3 SAVING "       HORT+DUNN" ON UNIT  61 AT TIME STEP 2, STRESS PERIOD 5
 UBDSV3 SAVING "  STORAGE CHANGE" ON UNIT  61 AT TIME STEP 2, STRESS PERIOD 5


UNSATURATED ZONE PACKAGE VOLUMETRIC BUDGET FOR  TIME STEP     2 STRESS PERIOD    5
  ------------------------------------------------------------------------------



     CUMULATIVE VOLUMES      L**3       RATES FOR THIS TIME STEP      L**3/T
     ------------------                 ------------------------

           IN:                                      IN:
           ---                                      ---
        INFILTRATION =     7560882.5865          INFILTRATION =           4.5675

          OUT:                                     OUT:
          ----                                     ----
              UZF ET =     7403799.9883                UZF ET =           4.5675
        UZF RECHARGE =       73224.0000          UZF RECHARGE =       0.0000E+00

            IN - OUT =       83858.5982              IN - OUT =       0.0000E+00

          STORAGE:                                 STORAGE:
          --------                                 --------
      STORAGE CHANGE =       83858.6509        STORAGE CHANGE =      -2.0514E-09

 PERCENT DISCREPANCY IS DIFFERENCE BETWEEN IN-OUT MINUS CHANGE IN STORAGE
 DIVIDED BY THE AVERAGE OF IN AND OUT TIMES 100

 PERCENT DISCREPANCY =           0.00     PERCENT DISCREPANCY =           0.00






 

            AG WELLS      PERIOD    5   STEP   2
 AG WELL      1   LAYER   1   ROW     6   COL     4   RATE   -0.620000    
 AG WELL      2   LAYER   1   ROW     6   COL     5   RATE   -0.620000    
 AG WELL      3   LAYER   1   ROW     7   COL     4   RATE   -0.620000    
 AG WELL      4   LAYER   1   ROW     7   COL     5   RATE   -0.620000    
 AG WELL      5   LAYER   1   ROW     8   COL     4   RATE   -0.620000    
 AG WELL      6   LAYER   1   ROW     8   COL     5   RATE   -0.620000    
 
 

   DIVERSION SEGMENTS     PERIOD    5   STEP   2
 SEGMENT      9   RATE     0.00000    
 
 

        SW IRRIGATION     PERIOD    5   STEP   2
 SEGMENT      9   ROW     6   COL     4   RATE     0.00000    
 SEGMENT      9   ROW     6   COL     5   RATE     0.00000    
 SEGMENT      9   ROW     7   COL     4   RATE     0.00000    
 SEGMENT      9   ROW     7   COL     5   RATE     0.00000    
 SEGMENT      9   ROW     8   COL     4   RATE     0.00000    
 SEGMENT      9   ROW     8   COL     5   RATE     0.00000    
 
 

        GW IRRIGATION     PERIOD    5   STEP   2
 AG WELL      1   ROW     6   COL     4   RATE    0.620000    
 AG WELL      2   ROW     6   COL     5   RATE    0.620000    
 AG WELL      3   ROW     7   COL     4   RATE    0.620000    
 AG WELL      4   ROW     7   COL     5   RATE    0.620000    
 AG WELL      5   ROW     8   COL     4   RATE    0.620000    
 AG WELL      6   ROW     8   COL     5   RATE    0.620000    
 
1
  VOLUMETRIC BUDGET FOR AGRICULTURAL FIELDS AT  END OF TIME STEP    2, STRESS PERIOD   5
  ------------------------------------------------------------------------------

     CUMULATIVE VOLUMES      L**3       RATES FOR THIS TIME STEP      L**3/T
     ------------------                 ------------------------

           IN:                                      IN:
           ---                                      ---
               AG WELLS  =      652289.0000                 AG WELLS  =           3.7200
      DIVERSION SEGMENTS =           0.0000        DIVERSION SEGMENTS =           0.0000
       IRRIGATION PONDS  =           0.0000         IRRIGATION PONDS  =           0.0000
           GW IRRIGATION =           0.0000             GW IRRIGATION =           0.0000
           SW IRRIGATION =           0.0000             SW IRRIGATION =           0.0000
        SYSTEM LOSSES GW =           0.0000          SYSTEM LOSSES GW =           0.0000
        SYSTEM LOSSES SW =           0.0000          SYSTEM LOSSES SW =           0.0000

                TOTAL IN =      652289.0000                  TOTAL IN =           3.7200

          OUT:                                     OUT:
          ----                                     ----
               AG WELLS  =           0.0000                 AG WELLS  =           0.0000
      DIVERSION SEGMENTS =           0.0000        DIVERSION SEGMENTS =           0.0000
       IRRIGATION PONDS  =           0.0000         IRRIGATION PONDS  =           0.0000
           GW IRRIGATION =      652289.0000             GW IRRIGATION =           3.7200
           SW IRRIGATION =           0.0000             SW IRRIGATION =           0.0000
        SYSTEM LOSSES GW =           0.0000          SYSTEM LOSSES GW =           0.0000
        SYSTEM LOSSES SW =           0.0000          SYSTEM LOSSES SW =           0.0000

               TOTAL OUT =      652289.0000                 TOTAL OUT =           3.7200

                IN - OUT =           0.0000                  IN - OUT =           0.0000

     PERCENT DISCREPANCY =           0.00         PERCENT DISCREPANCY =           0.00



1
  VOLUMETRIC BUDGET FOR ENTIRE MODEL AT END OF TIME STEP    2, STRESS PERIOD   5
  ------------------------------------------------------------------------------

     CUMULATIVE VOLUMES      L**3       RATES FOR THIS TIME STEP      L**3/T
     ------------------                 ------------------------

           IN:                                      IN:
           ---                                      ---
             STORAGE     =     5477772.5000               STORAGE     =           6.3032
       CONSTANT HEAD     =           0.0000         CONSTANT HEAD     =           0.0000
     HEAD DEP BOUNDS     =     2328828.0000       HEAD DEP BOUNDS     =           0.2857
      STREAM LEAKAGE     =    97886352.0000        STREAM LEAKAGE     =          11.3752
        UZF RECHARGE     =       73223.9531          UZF RECHARGE     =           0.0000
               GW ET     =           0.0000                 GW ET     =           0.0000
     SURFACE LEAKAGE     =           0.0000       SURFACE LEAKAGE     =           0.0000
           AG WELLS      =           0.0000             AG WELLS      =           0.0000

                TOTAL IN =   105766176.0000                  TOTAL IN =          17.9642

          OUT:                                     OUT:
          ----                                     ----
             STORAGE     =    18237946.0000               STORAGE     =           1.1700
       CONSTANT HEAD     =           0.0000         CONSTANT HEAD     =           0.0000
     HEAD DEP BOUNDS     =     2368221.7500       HEAD DEP BOUNDS     =           0.2943
      STREAM LEAKAGE     =    84484200.0000        STREAM LEAKAGE     =          12.6579
        UZF RECHARGE     =           0.0000          UZF RECHARGE     =           0.0000
               GW ET     =       27166.8047                 GW ET     =           0.1205
     SURFACE LEAKAGE     =           0.0000       SURFACE LEAKAGE     =           0.0000
           AG WELLS      =      652289.0000             AG WELLS      =           3.7200

               TOTAL OUT =   105769824.0000                 TOTAL OUT =          17.9627

                IN - OUT =       -3648.0000                  IN - OUT =       1.4782E-03

     PERCENT DISCREPANCY =          -0.00         PERCENT DISCREPANCY =           0.01






         TIME SUMMARY AT END OF TIME STEP    2 IN STRESS PERIOD    5
                    SECONDS     MINUTES      HOURS       DAYS        YEARS
                    -----------------------------------------------------------
   TIME STEP LENGTH  87667.      1461.1      24.352      1.0147     2.77799E-03
 STRESS PERIOD TIME 1.75333E+05  2922.2      48.704      2.0293     5.55598E-03
         TOTAL TIME 8.15173E+06 1.35862E+05  2264.4      94.349     0.25831    
1
 
 SOLVING FOR HEAD 
                                                   Max.-Head-Change                         Max.-Flux-Residual
  Residual-Control   Outer-Iter.   Inner-Iter.     Column Row Layer    Maximum-Head-Change  Column Row Layer    Maximum-Flux-Residual          L2-NORM 
          0                 1           2             4    7     1      -0.1161994372E-01       4   13    1        -0.6135654307E+00      0.1805103224E+01
          0                 2           2             4    7     1       0.1130301305E-02       4   13    1         0.6085035152E-01      0.1789177159E+00
          0                 3           1             4    7     1      -0.7696935181E-04       4    7    1        -0.4254371623E-02      0.1237729018E-01

    ------------------------------------------------
       NWT REQUIRED            3 OUTER ITERATIONS 
       AND A TOTAL OF          5 INNER ITERATIONS.
    ------------------------------------------------

 OUTPUT CONTROL FOR STRESS PERIOD    5   TIME STEP    3
    PRINT BUDGET
    SAVE BUDGET
 UBDSV1 SAVING "         STORAGE" ON UNIT 102 AT TIME STEP 3, STRESS PERIOD 5
 UBDSV2 SAVING "   CONSTANT HEAD" ON UNIT 102 AT TIME STEP 3, STRESS PERIOD 5
 UBDSV1 SAVING "FLOW RIGHT FACE " ON UNIT 102 AT TIME STEP 3, STRESS PERIOD 5
 UBDSV1 SAVING "FLOW FRONT FACE " ON UNIT 102 AT TIME STEP 3, STRESS PERIOD 5

  HEAD DEP BOUNDS   PERIOD    5   STEP     3
 BOUNDARY      1   LAYER   1   ROW    13   COL     1   RATE   -0.294093    
 BOUNDARY      2   LAYER   1   ROW    14   COL     9   RATE    0.285738    



 STREAM LISTING     PERIOD      5   STEP        3

 LAYER ROW COL. STREAM  RCH.  FLOW INTO     FLOW TO   FLOW OUT OF   OVRLND.     DIRECT     STREAM       STREAM     STREAM     STREAM   STREAMBED  STREAMBED
                SEG.NO.  NO.  STRM. RCH.    AQUIFER    STRM. RCH.    RUNOFF     PRECIP       ET          HEAD       DEPTH      WIDTH   CONDCTNC.   GRADIENT

   1    1    1     1     1    2.1000E+01  2.2591E-01   2.0774E+01  0.000E+00  0.000E+00  0.000E+00  1.09416E+03  1.115E+00  1.220E+01  5.490E-02  1.372E+00
   1    2    2     1     2    2.0774E+01  3.4916E-01   2.0425E+01  0.000E+00  0.000E+00  0.000E+00  1.08917E+03  1.110E+00  1.214E+01  8.495E-02  1.370E+00
   1    3    3     1     3    2.0425E+01  2.9709E-01   2.0128E+01  0.000E+00  0.000E+00  0.000E+00  1.08352E+03  1.105E+00  1.206E+01  7.238E-02  1.368E+00
   1    3    4     1     4    2.0128E+01  2.7299E-01   1.9855E+01  0.000E+00  0.000E+00  0.000E+00  1.07851E+03  1.100E+00  1.200E+01  6.659E-02  1.367E+00
   1    4    5     2     1    1.7855E+01  3.1056E-01   1.7544E+01  0.000E+00  0.000E+00  0.000E+00  1.07292E+03  9.816E-01  1.200E+01  7.800E-02  1.327E+00
   1    5    6     2     2    1.7544E+01  2.3834E-01   1.7306E+01  0.000E+00  0.000E+00  0.000E+00  1.06748E+03  9.724E-01  1.200E+01  6.000E-02  1.324E+00
   1    6    6     2     3    1.7306E+01  2.3786E-01   1.7068E+01  0.000E+00  0.000E+00  0.000E+00  1.06276E+03  9.644E-01  1.200E+01  6.000E-02  1.321E+00
   1    7    6     2     4    1.7068E+01  2.3738E-01   1.6831E+01  0.000E+00  0.000E+00  0.000E+00  1.05803E+03  9.564E-01  1.200E+01  6.000E-02  1.319E+00
   1    8    6     2     5    1.6831E+01  2.3690E-01   1.6594E+01  0.000E+00  0.000E+00  0.000E+00  1.05331E+03  9.483E-01  1.200E+01  6.000E-02  1.316E+00
   1    3    5     3     1    2.0000E+00  2.8252E-01   1.7175E+00  0.000E+00  0.000E+00  0.000E+00  1.07555E+03  1.909E+00  9.636E+00  7.227E-02  1.955E+00
   1    3    6     3     2    1.7175E+00  2.4905E-01   1.4684E+00  0.000E+00  0.000E+00  0.000E+00  1.07264E+03  1.727E+00  8.909E+00  6.682E-02  1.864E+00
   1    3    7     3     3    1.4684E+00  1.9718E-01   1.2712E+00  0.000E+00  0.000E+00  0.000E+00  1.06987E+03  1.555E+00  8.218E+00  5.547E-02  1.777E+00
   1    4    8     3     4    1.2712E+00  2.2567E-01   1.0456E+00  0.000E+00  0.000E+00  0.000E+00  1.06682E+03  1.364E+00  7.455E+00  6.709E-02  1.682E+00
   1    5    8     3     5    1.0456E+00  1.5790E-01   8.8768E-01  0.000E+00  0.000E+00  0.000E+00  1.06362E+03  1.164E+00  6.655E+00  4.991E-02  1.582E+00
   1    6    8     3     6    8.8768E-01  5.5980E-02   8.3170E-01  0.000E+00  0.000E+00  0.000E+00  1.06158E+03  1.036E+00  6.145E+00  1.844E-02  1.518E+00
   1    5   10     4     1    1.0000E+01  9.0919E-02   9.9091E+00  0.000E+00  0.000E+00  0.000E+00  1.07836E+03  6.368E-01  1.000E+01  2.500E-02  1.212E+00
   1    5    9     4     2    9.9091E+00  1.8158E-01   9.7275E+00  0.000E+00  0.000E+00  0.000E+00  1.07154E+03  6.315E-01  1.000E+01  5.000E-02  1.211E+00
   1    6    8     4     3    9.7275E+00  1.2689E-01   9.6006E+00  0.000E+00  0.000E+00  0.000E+00  1.06381E+03  6.256E-01  1.000E+01  3.500E-02  1.209E+00
   1    6    8     5     1    1.0432E+01  2.2686E-01   1.0205E+01  0.000E+00  0.000E+00  0.000E+00  1.05868E+03  6.790E-01  1.542E+01  6.166E-02  1.226E+00
   1    7    7     5     2    1.0205E+01  2.7894E-01   9.9265E+00  0.000E+00  0.000E+00  0.000E+00  1.05417E+03  6.732E-01  1.519E+01  7.594E-02  1.224E+00
   1    8    7     5     3    9.9265E+00  1.9221E-01   9.7343E+00  0.000E+00  0.000E+00  0.000E+00  1.04992E+03  6.676E-01  1.497E+01  5.241E-02  1.223E+00
   1    8    6     5     4    9.7343E+00  1.3577E-01   9.5985E+00  0.000E+00  0.000E+00  0.000E+00  1.04691E+03  6.637E-01  1.482E+01  3.706E-02  1.221E+00
   1    9    6     6     1    2.6192E+01  2.5512E-01   2.5937E+01  0.000E+00  0.000E+00  0.000E+00  1.04398E+03  1.252E+00  1.200E+01  6.000E-02  1.417E+00
   1   10    7     6     2    2.5937E+01  2.5468E-01   2.5682E+01  0.000E+00  0.000E+00  0.000E+00  1.03943E+03  1.245E+00  1.200E+01  6.000E-02  1.415E+00
   1   11    7     6     3    2.5682E+01  2.5424E-01   2.5428E+01  0.000E+00  0.000E+00  0.000E+00  1.03487E+03  1.237E+00  1.200E+01  6.000E-02  1.412E+00
   1   12    7     6     4    2.5428E+01  2.5379E-01   2.5174E+01  0.000E+00  0.000E+00  0.000E+00  1.03032E+03  1.230E+00  1.200E+01  6.000E-02  1.410E+00
   1   13    7     6     5    2.5174E+01  4.2802E-05   2.5174E+01  0.000E+00  0.000E+00  0.000E+00  1.02714E+03  1.226E+00  1.200E+01  2.400E-02  5.945E-04
   1   14    9     7     1    1.5000E+02  1.3355E+00   1.4866E+02  0.000E+00  0.000E+00  0.000E+00  1.03987E+03  2.288E+00  5.529E+01  5.593E-01  7.959E-01
   1   13    8     7     2    1.4866E+02  1.8266E+00   1.4684E+02  0.000E+00  0.000E+00  0.000E+00  1.03478E+03  2.279E+00  5.526E+01  6.148E-01  9.904E-01
   1   13    7     7     3    1.4684E+02  1.4277E+00   1.4541E+02  0.000E+00  0.000E+00  0.000E+00  1.02969E+03  2.271E+00  5.522E+01  5.585E-01  8.522E-01
   1   13    6     8     1    1.7058E+02  8.5750E-01   1.6973E+02  0.000E+00  0.000E+00  0.000E+00  1.02483E+03  2.953E+00  4.282E+01  4.364E-01  6.550E-01
   1   13    5     8     2    1.6973E+02  1.0294E-01   1.6962E+02  0.000E+00  0.000E+00  0.000E+00  1.01858E+03  2.950E+00  4.278E+01  4.359E-01  7.872E-02
   1   13    4     8     3    1.6962E+02 -3.0393E+00   1.7266E+02  0.000E+00  0.000E+00  0.000E+00  1.01233E+03  2.960E+00  4.291E+01  4.373E+00 -2.317E-01
   1   13    3     8     4    1.7266E+02 -4.1478E+00   1.7681E+02  0.000E+00  0.000E+00  0.000E+00  1.00611E+03  2.983E+00  4.325E+01  4.407E+00 -3.137E-01
   1   13    2     8     5    1.7681E+02 -3.0841E+00   1.7990E+02  0.000E+00  0.000E+00  0.000E+00  9.99881E+02  3.006E+00  4.358E+01  4.441E+00 -2.315E-01
   1   13    1     8     6    1.7990E+02 -2.2555E+00   1.8215E+02  0.000E+00  0.000E+00  0.000E+00  9.94898E+02  3.023E+00  4.383E+01  2.680E+00 -2.806E-01
   1    8    6     9     1    0.0000E+00  0.0000E+00   0.0000E+00  0.000E+00  0.000E+00  0.000E+00  1.07875E+03  0.000E+00  4.000E+00  0.000E+00  1.000E+00
   1    8    5     9     2    0.0000E+00  0.0000E+00   0.0000E+00  0.000E+00  0.000E+00  0.000E+00  1.07825E+03  0.000E+00  4.000E+00  0.000E+00  1.000E+00



 UBDSV3 SAVING "           GW ET" ON UNIT  61 AT TIME STEP 3, STRESS PERIOD 5
 UBDSV3 SAVING "    UZF RECHARGE" ON UNIT  61 AT TIME STEP 3, STRESS PERIOD 5
 UBDSV3 SAVING " SURFACE LEAKAGE" ON UNIT  61 AT TIME STEP 3, STRESS PERIOD 5
 UBDSV3 SAVING "       HORT+DUNN" ON UNIT  61 AT TIME STEP 3, STRESS PERIOD 5
 UBDSV3 SAVING "  STORAGE CHANGE" ON UNIT  61 AT TIME STEP 3, STRESS PERIOD 5


UNSATURATED ZONE PACKAGE VOLUMETRIC BUDGET FOR  TIME STEP     3 STRESS PERIOD    5
  ------------------------------------------------------------------------------



     CUMULATIVE VOLUMES      L**3       RATES FOR THIS TIME STEP      L**3/T
     ------------------                 ------------------------

           IN:                                      IN:
           ---                                      ---
        INFILTRATION =     7961300.0668          INFILTRATION =           4.5675

          OUT:                                     OUT:
          ----                                     ----
              UZF ET =     7804217.4686                UZF ET =           4.5675
        UZF RECHARGE =       73224.0000          UZF RECHARGE =       0.0000E+00

            IN - OUT =       83858.5982              IN - OUT =       0.0000E+00

          STORAGE:                                 STORAGE:
          --------                                 --------
      STORAGE CHANGE =       83858.6509        STORAGE CHANGE =       2.0749E-17

 PERCENT DISCREPANCY IS DIFFERENCE BETWEEN IN-OUT MINUS CHANGE IN STORAGE
 DIVIDED BY THE AVERAGE OF IN AND OUT TIMES 100

 PERCENT DISCREPANCY =           0.00     PERCENT DISCREPANCY =           0.00






 

            AG WELLS      PERIOD    5   STEP   3
 AG WELL      1   LAYER   1   ROW     6   COL     4   RATE   -0.620000    
 AG WELL      2   LAYER   1   ROW     6   COL     5   RATE   -0.620000    
 AG WELL      3   LAYER   1   ROW     7   COL     4   RATE   -0.620000    
 AG WELL      4   LAYER   1   ROW     7   COL     5   RATE   -0.620000    
 AG WELL      5   LAYER   1   ROW     8   COL     4   RATE   -0.620000    
 AG WELL      6   LAYER   1   ROW     8   COL     5   RATE   -0.620000    
 
 

   DIVERSION SEGMENTS     PERIOD    5   STEP   3
 SEGMENT      9   RATE     0.00000    
 
 

        SW IRRIGATION     PERIOD    5   STEP   3
 SEGMENT      9   ROW     6   COL     4   RATE     0.00000    
 SEGMENT      9   ROW     6   COL     5   RATE     0.00000    
 SEGMENT      9   ROW     7   COL     4   RATE     0.00000    
 SEGMENT      9   ROW     7   COL     5   RATE     0.00000    
 SEGMENT      9   ROW     8   COL     4   RATE     0.00000    
 SEGMENT      9   ROW     8   COL     5   RATE     0.00000    
 
 

        GW IRRIGATION     PERIOD    5   STEP   3
 AG WELL      1   ROW     6   COL     4   RATE    0.620000    
 AG WELL      2   ROW     6   COL     5   RATE    0.620000    
 AG WELL      3   ROW     7   COL     4   RATE    0.620000    
 AG WELL      4   ROW     7   COL     5   RATE    0.620000    
 AG WELL      5   ROW     8   COL     4   RATE    0.620000    
 AG WELL      6   ROW     8   COL     5   RATE    0.620000    
 
1
  VOLUMETRIC BUDGET FOR AGRICULTURAL FIELDS AT  END OF TIME STEP    3, STRESS PERIOD   5
  ------------------------------------------------------------------------------

     CUMULATIVE VOLUMES      L**3       RATES FOR THIS TIME STEP      L**3/T
     ------------------                 ------------------------

           IN:                                      IN:
           ---                                      ---
               AG WELLS  =      978409.0000                 AG WELLS  =           3.7200
      DIVERSION SEGMENTS =           0.0000        DIVERSION SEGMENTS =           0.0000
       IRRIGATION PONDS  =           0.0000         IRRIGATION PONDS  =           0.0000
           GW IRRIGATION =           0.0000             GW IRRIGATION =           0.0000
           SW IRRIGATION =           0.0000             SW IRRIGATION =           0.0000
        SYSTEM LOSSES GW =           0.0000          SYSTEM LOSSES GW =           0.0000
        SYSTEM LOSSES SW =           0.0000          SYSTEM LOSSES SW =           0.0000

                TOTAL IN =      978409.0000                  TOTAL IN =           3.7200

          OUT:                                     OUT:
          ----                                     ----
               AG WELLS  =           0.0000                 AG WELLS  =           0.0000
      DIVERSION SEGMENTS =           0.0000        DIVERSION SEGMENTS =           0.0000
       IRRIGATION PONDS  =           0.0000         IRRIGATION PONDS  =           0.0000
           GW IRRIGATION =      978409.0000             GW IRRIGATION =           3.7200
           SW IRRIGATION =           0.0000             SW IRRIGATION =           0.0000
        SYSTEM LOSSES GW =           0.0000          SYSTEM LOSSES GW =           0.0000
        SYSTEM LOSSES SW =           0.0000          SYSTEM LOSSES SW =           0.0000

               TOTAL OUT =      978409.0000                 TOTAL OUT =           3.7200

                IN - OUT =           0.0000                  IN - OUT =           0.0000

     PERCENT DISCREPANCY =           0.00         PERCENT DISCREPANCY =           0.00



1
  VOLUMETRIC BUDGET FOR ENTIRE MODEL AT END OF TIME STEP    3, STRESS PERIOD   5
  ------------------------------------------------------------------------------

     CUMULATIVE VOLUMES      L**3       RATES FOR THIS TIME STEP      L**3/T
     ------------------                 ------------------------

           IN:                                      IN:
           ---                                      ---
             STORAGE     =     6012489.5000               STORAGE     =           6.0994
       CONSTANT HEAD     =           0.0000         CONSTANT HEAD     =           0.0000
     HEAD DEP BOUNDS     =     2353877.7500       HEAD DEP BOUNDS     =           0.2857
      STREAM LEAKAGE     =    98883624.0000        STREAM LEAKAGE     =          11.3758
        UZF RECHARGE     =       73223.9531          UZF RECHARGE     =           0.0000
               GW ET     =           0.0000                 GW ET     =           0.0000
     SURFACE LEAKAGE     =           0.0000       SURFACE LEAKAGE     =           0.0000
           AG WELLS      =           0.0000             AG WELLS      =           0.0000

                TOTAL IN =   107323216.0000                  TOTAL IN =          17.7609

          OUT:                                     OUT:
          ----                                     ----
             STORAGE     =    18336248.0000               STORAGE     =           1.1213
       CONSTANT HEAD     =           0.0000         CONSTANT HEAD     =           0.0000
     HEAD DEP BOUNDS     =     2394004.0000       HEAD DEP BOUNDS     =           0.2941
      STREAM LEAKAGE     =    85582376.0000        STREAM LEAKAGE     =          12.5267
        UZF RECHARGE     =           0.0000          UZF RECHARGE     =           0.0000
               GW ET     =       35702.9844                 GW ET     =       9.7371E-02
     SURFACE LEAKAGE     =           0.0000       SURFACE LEAKAGE     =           0.0000
           AG WELLS      =      978409.0000             AG WELLS      =           3.7200

               TOTAL OUT =   107326736.0000                 TOTAL OUT =          17.7595

                IN - OUT =       -3520.0000                  IN - OUT =       1.4324E-03

     PERCENT DISCREPANCY =          -0.00         PERCENT DISCREPANCY =           0.01






         TIME SUMMARY AT END OF TIME STEP    3 IN STRESS PERIOD    5
                    SECONDS     MINUTES      HOURS       DAYS        YEARS
                    -----------------------------------------------------------
   TIME STEP LENGTH  87667.      1461.1      24.352      1.0147     2.77799E-03
 STRESS PERIOD TIME 2.63000E+05  4383.3      73.056      3.0440     8.33397E-03
         TOTAL TIME 8.23939E+06 1.37323E+05  2288.7      95.363     0.26109    
1
 
 SOLVING FOR HEAD 
                                                   Max.-Head-Change                         Max.-Flux-Residual
  Residual-Control   Outer-Iter.   Inner-Iter.     Column Row Layer    Maximum-Head-Change  Column Row Layer    Maximum-Flux-Residual          L2-NORM 
          0                 1           2             4    7     1      -0.1153894560E-01       4    7    1        -0.6037596400E+00      0.1729028139E+01
          0                 2           2             4    7     1       0.1122422342E-02       4    7    1         0.6037580512E-01      0.1715190604E+00
          0                 3           1             4    7     1      -0.7643282392E-04       4    7    1        -0.4226309695E-02      0.1187992792E-01

    ------------------------------------------------
       NWT REQUIRED            3 OUTER ITERATIONS 
       AND A TOTAL OF          5 INNER ITERATIONS.
    ------------------------------------------------

 OUTPUT CONTROL FOR STRESS PERIOD    5   TIME STEP    4
    PRINT BUDGET
    SAVE BUDGET
 UBDSV1 SAVING "         STORAGE" ON UNIT 102 AT TIME STEP 4, STRESS PERIOD 5
 UBDSV2 SAVING "   CONSTANT HEAD" ON UNIT 102 AT TIME STEP 4, STRESS PERIOD 5
 UBDSV1 SAVING "FLOW RIGHT FACE " ON UNIT 102 AT TIME STEP 4, STRESS PERIOD 5
 UBDSV1 SAVING "FLOW FRONT FACE " ON UNIT 102 AT TIME STEP 4, STRESS PERIOD 5

  HEAD DEP BOUNDS   PERIOD    5   STEP     4
 BOUNDARY      1   LAYER   1   ROW    13   COL     1   RATE   -0.293909    
 BOUNDARY      2   LAYER   1   ROW    14   COL     9   RATE    0.285739    



 STREAM LISTING     PERIOD      5   STEP        4

 LAYER ROW COL. STREAM  RCH.  FLOW INTO     FLOW TO   FLOW OUT OF   OVRLND.     DIRECT     STREAM       STREAM     STREAM     STREAM   STREAMBED  STREAMBED
                SEG.NO.  NO.  STRM. RCH.    AQUIFER    STRM. RCH.    RUNOFF     PRECIP       ET          HEAD       DEPTH      WIDTH   CONDCTNC.   GRADIENT

   1    1    1     1     1    2.1000E+01  2.2591E-01   2.0774E+01  0.000E+00  0.000E+00  0.000E+00  1.09416E+03  1.115E+00  1.220E+01  5.490E-02  1.372E+00
   1    2    2     1     2    2.0774E+01  3.4916E-01   2.0425E+01  0.000E+00  0.000E+00  0.000E+00  1.08917E+03  1.110E+00  1.214E+01  8.495E-02  1.370E+00
   1    3    3     1     3    2.0425E+01  2.9709E-01   2.0128E+01  0.000E+00  0.000E+00  0.000E+00  1.08352E+03  1.105E+00  1.206E+01  7.238E-02  1.368E+00
   1    3    4     1     4    2.0128E+01  2.7299E-01   1.9855E+01  0.000E+00  0.000E+00  0.000E+00  1.07851E+03  1.100E+00  1.200E+01  6.659E-02  1.367E+00
   1    4    5     2     1    1.7855E+01  3.1056E-01   1.7544E+01  0.000E+00  0.000E+00  0.000E+00  1.07292E+03  9.816E-01  1.200E+01  7.800E-02  1.327E+00
   1    5    6     2     2    1.7544E+01  2.3834E-01   1.7306E+01  0.000E+00  0.000E+00  0.000E+00  1.06748E+03  9.724E-01  1.200E+01  6.000E-02  1.324E+00
   1    6    6     2     3    1.7306E+01  2.3786E-01   1.7068E+01  0.000E+00  0.000E+00  0.000E+00  1.06276E+03  9.644E-01  1.200E+01  6.000E-02  1.321E+00
   1    7    6     2     4    1.7068E+01  2.3738E-01   1.6831E+01  0.000E+00  0.000E+00  0.000E+00  1.05803E+03  9.564E-01  1.200E+01  6.000E-02  1.319E+00
   1    8    6     2     5    1.6831E+01  2.3690E-01   1.6594E+01  0.000E+00  0.000E+00  0.000E+00  1.05331E+03  9.483E-01  1.200E+01  6.000E-02  1.316E+00
   1    3    5     3     1    2.0000E+00  2.8252E-01   1.7175E+00  0.000E+00  0.000E+00  0.000E+00  1.07555E+03  1.909E+00  9.636E+00  7.227E-02  1.955E+00
   1    3    6     3     2    1.7175E+00  2.4905E-01   1.4684E+00  0.000E+00  0.000E+00  0.000E+00  1.07264E+03  1.727E+00  8.909E+00  6.682E-02  1.864E+00
   1    3    7     3     3    1.4684E+00  1.9718E-01   1.2712E+00  0.000E+00  0.000E+00  0.000E+00  1.06987E+03  1.555E+00  8.218E+00  5.547E-02  1.777E+00
   1    4    8     3     4    1.2712E+00  2.2567E-01   1.0456E+00  0.000E+00  0.000E+00  0.000E+00  1.06682E+03  1.364E+00  7.455E+00  6.709E-02  1.682E+00
   1    5    8     3     5    1.0456E+00  1.5790E-01   8.8768E-01  0.000E+00  0.000E+00  0.000E+00  1.06362E+03  1.164E+00  6.655E+00  4.991E-02  1.582E+00
   1    6    8     3     6    8.8768E-01  5.5980E-02   8.3170E-01  0.000E+00  0.000E+00  0.000E+00  1.06158E+03  1.036E+00  6.145E+00  1.844E-02  1.518E+00
   1    5   10     4     1    1.0000E+01  9.0919E-02   9.9091E+00  0.000E+00  0.000E+00  0.000E+00  1.07836E+03  6.368E-01  1.000E+01  2.500E-02  1.212E+00
   1    5    9     4     2    9.9091E+00  1.8158E-01   9.7275E+00  0.000E+00  0.000E+00  0.000E+00  1.07154E+03  6.315E-01  1.000E+01  5.000E-02  1.211E+00
   1    6    8     4     3    9.7275E+00  1.2689E-01   9.6006E+00  0.000E+00  0.000E+00  0.000E+00  1.06381E+03  6.256E-01  1.000E+01  3.500E-02  1.209E+00
   1    6    8     5     1    1.0432E+01  2.2686E-01   1.0205E+01  0.000E+00  0.000E+00  0.000E+00  1.05868E+03  6.790E-01  1.542E+01  6.166E-02  1.226E+00
   1    7    7     5     2    1.0205E+01  2.7894E-01   9.9265E+00  0.000E+00  0.000E+00  0.000E+00  1.05417E+03  6.732E-01  1.519E+01  7.594E-02  1.224E+00
   1    8    7     5     3    9.9265E+00  1.9221E-01   9.7343E+00  0.000E+00  0.000E+00  0.000E+00  1.04992E+03  6.676E-01  1.497E+01  5.241E-02  1.223E+00
   1    8    6     5     4    9.7343E+00  1.3577E-01   9.5985E+00  0.000E+00  0.000E+00  0.000E+00  1.04691E+03  6.637E-01  1.482E+01  3.706E-02  1.221E+00
   1    9    6     6     1    2.6192E+01  2.5512E-01   2.5937E+01  0.000E+00  0.000E+00  0.000E+00  1.04398E+03  1.252E+00  1.200E+01  6.000E-02  1.417E+00
   1   10    7     6     2    2.5937E+01  2.5468E-01   2.5682E+01  0.000E+00  0.000E+00  0.000E+00  1.03943E+03  1.245E+00  1.200E+01  6.000E-02  1.415E+00
   1   11    7     6     3    2.5682E+01  2.5424E-01   2.5428E+01  0.000E+00  0.000E+00  0.000E+00  1.03487E+03  1.237E+00  1.200E+01  6.000E-02  1.412E+00
   1   12    7     6     4    2.5428E+01  2.5379E-01   2.5174E+01  0.000E+00  0.000E+00  0.000E+00  1.03032E+03  1.230E+00  1.200E+01  6.000E-02  1.410E+00
   1   13    7     6     5    2.5174E+01  3.4352E-05   2.5174E+01  0.000E+00  0.000E+00  0.000E+00  1.02714E+03  1.226E+00  1.200E+01  2.400E-02  4.771E-04
   1   14    9     7     1    1.5000E+02  1.3355E+00   1.4866E+02  0.000E+00  0.000E+00  0.000E+00  1.03987E+03  2.288E+00  5.529E+01  5.593E-01  7.959E-01
   1   13    8     7     2    1.4866E+02  1.8264E+00   1.4684E+02  0.000E+00  0.000E+00  0.000E+00  1.03478E+03  2.279E+00  5.526E+01  6.148E-01  9.903E-01
   1   13    7     7     3    1.4684E+02  1.4275E+00   1.4541E+02  0.000E+00  0.000E+00  0.000E+00  1.02969E+03  2.271E+00  5.522E+01  5.585E-01  8.521E-01
   1   13    6     8     1    1.7058E+02  8.5801E-01   1.6973E+02  0.000E+00  0.000E+00  0.000E+00  1.02483E+03  2.953E+00  4.282E+01  4.364E-01  6.554E-01
   1   13    5     8     2    1.6973E+02  1.0330E-01   1.6962E+02  0.000E+00  0.000E+00  0.000E+00  1.01858E+03  2.950E+00  4.278E+01  4.359E-01  7.899E-02
   1   13    4     8     3    1.6962E+02 -3.0026E+00   1.7263E+02  0.000E+00  0.000E+00  0.000E+00  1.01233E+03  2.960E+00  4.291E+01  4.373E+00 -2.289E-01
   1   13    3     8     4    1.7263E+02 -4.1126E+00   1.7674E+02  0.000E+00  0.000E+00  0.000E+00  1.00611E+03  2.982E+00  4.325E+01  4.407E+00 -3.111E-01
   1   13    2     8     5    1.7674E+02 -3.0481E+00   1.7979E+02  0.000E+00  0.000E+00  0.000E+00  9.99880E+02  3.005E+00  4.358E+01  4.441E+00 -2.288E-01
   1   13    1     8     6    1.7979E+02 -2.2439E+00   1.8203E+02  0.000E+00  0.000E+00  0.000E+00  9.94897E+02  3.022E+00  4.382E+01  2.679E+00 -2.792E-01
   1    8    6     9     1    0.0000E+00  0.0000E+00   0.0000E+00  0.000E+00  0.000E+00  0.000E+00  1.07875E+03  0.000E+00  4.000E+00  0.000E+00  1.000E+00
   1    8    5     9     2    0.0000E+00  0.0000E+00   0.0000E+00  0.000E+00  0.000E+00  0.000E+00  1.07825E+03  0.000E+00  4.000E+00  0.000E+00  1.000E+00



 UBDSV3 SAVING "           GW ET" ON UNIT  61 AT TIME STEP 4, STRESS PERIOD 5
 UBDSV3 SAVING "    UZF RECHARGE" ON UNIT  61 AT TIME STEP 4, STRESS PERIOD 5
 UBDSV3 SAVING " SURFACE LEAKAGE" ON UNIT  61 AT TIME STEP 4, STRESS PERIOD 5
 UBDSV3 SAVING "       HORT+DUNN" ON UNIT  61 AT TIME STEP 4, STRESS PERIOD 5
 UBDSV3 SAVING "  STORAGE CHANGE" ON UNIT  61 AT TIME STEP 4, STRESS PERIOD 5


UNSATURATED ZONE PACKAGE VOLUMETRIC BUDGET FOR  TIME STEP     4 STRESS PERIOD    5
  ------------------------------------------------------------------------------



     CUMULATIVE VOLUMES      L**3       RATES FOR THIS TIME STEP      L**3/T
     ------------------                 ------------------------

           IN:                                      IN:
           ---                                      ---
        INFILTRATION =     8361717.5471          INFILTRATION =           4.5675

          OUT:                                     OUT:
          ----                                     ----
              UZF ET =     8204634.9489                UZF ET =           4.5675
        UZF RECHARGE =       73224.0000          UZF RECHARGE =       0.0000E+00

            IN - OUT =       83858.5982              IN - OUT =       0.0000E+00

          STORAGE:                                 STORAGE:
          --------                                 --------
      STORAGE CHANGE =       83858.6509        STORAGE CHANGE =       2.2824E-16

 PERCENT DISCREPANCY IS DIFFERENCE BETWEEN IN-OUT MINUS CHANGE IN STORAGE
 DIVIDED BY THE AVERAGE OF IN AND OUT TIMES 100

 PERCENT DISCREPANCY =           0.00     PERCENT DISCREPANCY =           0.00






 

            AG WELLS      PERIOD    5   STEP   4
 AG WELL      1   LAYER   1   ROW     6   COL     4   RATE   -0.620000    
 AG WELL      2   LAYER   1   ROW     6   COL     5   RATE   -0.620000    
 AG WELL      3   LAYER   1   ROW     7   COL     4   RATE   -0.620000    
 AG WELL      4   LAYER   1   ROW     7   COL     5   RATE   -0.620000    
 AG WELL      5   LAYER   1   ROW     8   COL     4   RATE   -0.620000    
 AG WELL      6   LAYER   1   ROW     8   COL     5   RATE   -0.620000    
 
 

   DIVERSION SEGMENTS     PERIOD    5   STEP   4
 SEGMENT      9   RATE     0.00000    
 
 

        SW IRRIGATION     PERIOD    5   STEP   4
 SEGMENT      9   ROW     6   COL     4   RATE     0.00000    
 SEGMENT      9   ROW     6   COL     5   RATE     0.00000    
 SEGMENT      9   ROW     7   COL     4   RATE     0.00000    
 SEGMENT      9   ROW     7   COL     5   RATE     0.00000    
 SEGMENT      9   ROW     8   COL     4   RATE     0.00000    
 SEGMENT      9   ROW     8   COL     5   RATE     0.00000    
 
 

        GW IRRIGATION     PERIOD    5   STEP   4
 AG WELL      1   ROW     6   COL     4   RATE    0.620000    
 AG WELL      2   ROW     6   COL     5   RATE    0.620000    
 AG WELL      3   ROW     7   COL     4   RATE    0.620000    
 AG WELL      4   ROW     7   COL     5   RATE    0.620000    
 AG WELL      5   ROW     8   COL     4   RATE    0.620000    
 AG WELL      6   ROW     8   COL     5   RATE    0.620000    
 
1
  VOLUMETRIC BUDGET FOR AGRICULTURAL FIELDS AT  END OF TIME STEP    4, STRESS PERIOD   5
  ------------------------------------------------------------------------------

     CUMULATIVE VOLUMES      L**3       RATES FOR THIS TIME STEP      L**3/T
     ------------------                 ------------------------

           IN:                                      IN:
           ---                                      ---
               AG WELLS  =     1304529.0000                 AG WELLS  =           3.7200
      DIVERSION SEGMENTS =           0.0000        DIVERSION SEGMENTS =           0.0000
       IRRIGATION PONDS  =           0.0000         IRRIGATION PONDS  =           0.0000
           GW IRRIGATION =           0.0000             GW IRRIGATION =           0.0000
           SW IRRIGATION =           0.0000             SW IRRIGATION =           0.0000
        SYSTEM LOSSES GW =           0.0000          SYSTEM LOSSES GW =           0.0000
        SYSTEM LOSSES SW =           0.0000          SYSTEM LOSSES SW =           0.0000

                TOTAL IN =     1304529.0000                  TOTAL IN =           3.7200

          OUT:                                     OUT:
          ----                                     ----
               AG WELLS  =           0.0000                 AG WELLS  =           0.0000
      DIVERSION SEGMENTS =           0.0000        DIVERSION SEGMENTS =           0.0000
       IRRIGATION PONDS  =           0.0000         IRRIGATION PONDS  =           0.0000
           GW IRRIGATION =     1304529.0000             GW IRRIGATION =           3.7200
           SW IRRIGATION =           0.0000             SW IRRIGATION =           0.0000
        SYSTEM LOSSES GW =           0.0000          SYSTEM LOSSES GW =           0.0000
        SYSTEM LOSSES SW =           0.0000          SYSTEM LOSSES SW =           0.0000

               TOTAL OUT =     1304529.0000                 TOTAL OUT =           3.7200

                IN - OUT =           0.0000                  IN - OUT =           0.0000

     PERCENT DISCREPANCY =           0.00         PERCENT DISCREPANCY =           0.00



1
  VOLUMETRIC BUDGET FOR ENTIRE MODEL AT END OF TIME STEP    4, STRESS PERIOD   5
  ------------------------------------------------------------------------------

     CUMULATIVE VOLUMES      L**3       RATES FOR THIS TIME STEP      L**3/T
     ------------------                 ------------------------

           IN:                                      IN:
           ---                                      ---
             STORAGE     =     6531423.0000               STORAGE     =           5.9194
       CONSTANT HEAD     =           0.0000         CONSTANT HEAD     =           0.0000
     HEAD DEP BOUNDS     =     2378927.5000       HEAD DEP BOUNDS     =           0.2857
      STREAM LEAKAGE     =    99880944.0000        STREAM LEAKAGE     =          11.3763
        UZF RECHARGE     =       73223.9531          UZF RECHARGE     =           0.0000
               GW ET     =           0.0000                 GW ET     =           0.0000
     SURFACE LEAKAGE     =           0.0000       SURFACE LEAKAGE     =           0.0000
           AG WELLS      =           0.0000             AG WELLS      =           0.0000

                TOTAL IN =   108864520.0000                  TOTAL IN =          17.5814

          OUT:                                     OUT:
          ----                                     ----
             STORAGE     =    18431126.0000               STORAGE     =           1.0823
       CONSTANT HEAD     =           0.0000         CONSTANT HEAD     =           0.0000
     HEAD DEP BOUNDS     =     2419770.0000       HEAD DEP BOUNDS     =           0.2939
      STREAM LEAKAGE     =    86670080.0000        STREAM LEAKAGE     =          12.4072
        UZF RECHARGE     =           0.0000          UZF RECHARGE     =           0.0000
               GW ET     =       42422.0820                 GW ET     =       7.6644E-02
     SURFACE LEAKAGE     =           0.0000       SURFACE LEAKAGE     =           0.0000
           AG WELLS      =     1304529.0000             AG WELLS      =           3.7200

               TOTAL OUT =   108867928.0000                 TOTAL OUT =          17.5800

                IN - OUT =       -3408.0000                  IN - OUT =       1.3924E-03

     PERCENT DISCREPANCY =          -0.00         PERCENT DISCREPANCY =           0.01






         TIME SUMMARY AT END OF TIME STEP    4 IN STRESS PERIOD    5
                    SECONDS     MINUTES      HOURS       DAYS        YEARS
                    -----------------------------------------------------------
   TIME STEP LENGTH  87667.      1461.1      24.352      1.0147     2.77799E-03
 STRESS PERIOD TIME 3.50667E+05  5844.4      97.407      4.0586     1.11120E-02
         TOTAL TIME 8.32706E+06 1.38784E+05  2313.1      96.378     0.26387    
1
 
 SOLVING FOR HEAD 
                                                   Max.-Head-Change                         Max.-Flux-Residual
  Residual-Control   Outer-Iter.   Inner-Iter.     Column Row Layer    Maximum-Head-Change  Column Row Layer    Maximum-Flux-Residual          L2-NORM 
          0                 1           2             4    7     1      -0.1145465651E-01       4    7    1        -0.5995598612E+00      0.1661715478E+01
          0                 2           2             4    7     1       0.1114223268E-02       4    7    1         0.5995582410E-01      0.1649711914E+00
          0                 3           1             4    7     1      -0.7587449794E-04       4    7    1        -0.4196911034E-02      0.1143788214E-01

    ------------------------------------------------
       NWT REQUIRED            3 OUTER ITERATIONS 
       AND A TOTAL OF          5 INNER ITERATIONS.
    ------------------------------------------------

 NO OUTPUT CONTROL FOR STRESS PERIOD    5   TIME STEP    5
 
 SOLVING FOR HEAD 
                                                   Max.-Head-Change                         Max.-Flux-Residual
  Residual-Control   Outer-Iter.   Inner-Iter.     Column Row Layer    Maximum-Head-Change  Column Row Layer    Maximum-Flux-Residual          L2-NORM 
          0                 1           2             4    7     1      -0.1136742740E-01       4    7    1        -0.5951894534E+00      0.1601958698E+01
          0                 2           2             4    7     1       0.1105738220E-02       4    7    1         0.5951878081E-01      0.1591566982E+00
          0                 3           1             4    7     1      -0.7529669849E-04       4    7    1        -0.4166318027E-02      0.1104488610E-01

    ------------------------------------------------
       NWT REQUIRED            3 OUTER ITERATIONS 
       AND A TOTAL OF          5 INNER ITERATIONS.
    ------------------------------------------------

 OUTPUT CONTROL FOR STRESS PERIOD    5   TIME STEP    6
    PRINT BUDGET
    SAVE BUDGET
 UBDSV1 SAVING "         STORAGE" ON UNIT 102 AT TIME STEP 6, STRESS PERIOD 5
 UBDSV2 SAVING "   CONSTANT HEAD" ON UNIT 102 AT TIME STEP 6, STRESS PERIOD 5
 UBDSV1 SAVING "FLOW RIGHT FACE " ON UNIT 102 AT TIME STEP 6, STRESS PERIOD 5
 UBDSV1 SAVING "FLOW FRONT FACE " ON UNIT 102 AT TIME STEP 6, STRESS PERIOD 5

  HEAD DEP BOUNDS   PERIOD    5   STEP     6
 BOUNDARY      1   LAYER   1   ROW    13   COL     1   RATE   -0.293563    
 BOUNDARY      2   LAYER   1   ROW    14   COL     9   RATE    0.285740    



 STREAM LISTING     PERIOD      5   STEP        6

 LAYER ROW COL. STREAM  RCH.  FLOW INTO     FLOW TO   FLOW OUT OF   OVRLND.     DIRECT     STREAM       STREAM     STREAM     STREAM   STREAMBED  STREAMBED
                SEG.NO.  NO.  STRM. RCH.    AQUIFER    STRM. RCH.    RUNOFF     PRECIP       ET          HEAD       DEPTH      WIDTH   CONDCTNC.   GRADIENT

   1    1    1     1     1    2.1000E+01  2.2592E-01   2.0774E+01  0.000E+00  0.000E+00  0.000E+00  1.09416E+03  1.115E+00  1.220E+01  5.490E-02  1.372E+00
   1    2    2     1     2    2.0774E+01  3.4916E-01   2.0425E+01  0.000E+00  0.000E+00  0.000E+00  1.08917E+03  1.110E+00  1.214E+01  8.495E-02  1.370E+00
   1    3    3     1     3    2.0425E+01  2.9709E-01   2.0128E+01  0.000E+00  0.000E+00  0.000E+00  1.08352E+03  1.105E+00  1.206E+01  7.238E-02  1.368E+00
   1    3    4     1     4    2.0128E+01  2.7299E-01   1.9855E+01  0.000E+00  0.000E+00  0.000E+00  1.07851E+03  1.100E+00  1.200E+01  6.659E-02  1.367E+00
   1    4    5     2     1    1.7855E+01  3.1056E-01   1.7544E+01  0.000E+00  0.000E+00  0.000E+00  1.07292E+03  9.816E-01  1.200E+01  7.800E-02  1.327E+00
   1    5    6     2     2    1.7544E+01  2.3834E-01   1.7306E+01  0.000E+00  0.000E+00  0.000E+00  1.06748E+03  9.724E-01  1.200E+01  6.000E-02  1.324E+00
   1    6    6     2     3    1.7306E+01  2.3787E-01   1.7068E+01  0.000E+00  0.000E+00  0.000E+00  1.06276E+03  9.644E-01  1.200E+01  6.000E-02  1.321E+00
   1    7    6     2     4    1.7068E+01  2.3738E-01   1.6831E+01  0.000E+00  0.000E+00  0.000E+00  1.05803E+03  9.564E-01  1.200E+01  6.000E-02  1.319E+00
   1    8    6     2     5    1.6831E+01  2.3690E-01   1.6594E+01  0.000E+00  0.000E+00  0.000E+00  1.05331E+03  9.483E-01  1.200E+01  6.000E-02  1.316E+00
   1    3    5     3     1    2.0000E+00  2.8252E-01   1.7175E+00  0.000E+00  0.000E+00  0.000E+00  1.07555E+03  1.909E+00  9.636E+00  7.227E-02  1.955E+00
   1    3    6     3     2    1.7175E+00  2.4905E-01   1.4684E+00  0.000E+00  0.000E+00  0.000E+00  1.07264E+03  1.727E+00  8.909E+00  6.682E-02  1.864E+00
   1    3    7     3     3    1.4684E+00  1.9718E-01   1.2712E+00  0.000E+00  0.000E+00  0.000E+00  1.06987E+03  1.555E+00  8.218E+00  5.547E-02  1.777E+00
   1    4    8     3     4    1.2712E+00  2.2567E-01   1.0456E+00  0.000E+00  0.000E+00  0.000E+00  1.06682E+03  1.364E+00  7.455E+00  6.709E-02  1.682E+00
   1    5    8     3     5    1.0456E+00  1.5790E-01   8.8768E-01  0.000E+00  0.000E+00  0.000E+00  1.06362E+03  1.164E+00  6.655E+00  4.991E-02  1.582E+00
   1    6    8     3     6    8.8768E-01  5.5980E-02   8.3170E-01  0.000E+00  0.000E+00  0.000E+00  1.06158E+03  1.036E+00  6.145E+00  1.844E-02  1.518E+00
   1    5   10     4     1    1.0000E+01  9.0919E-02   9.9091E+00  0.000E+00  0.000E+00  0.000E+00  1.07836E+03  6.368E-01  1.000E+01  2.500E-02  1.212E+00
   1    5    9     4     2    9.9091E+00  1.8158E-01   9.7275E+00  0.000E+00  0.000E+00  0.000E+00  1.07154E+03  6.315E-01  1.000E+01  5.000E-02  1.211E+00
   1    6    8     4     3    9.7275E+00  1.2689E-01   9.6006E+00  0.000E+00  0.000E+00  0.000E+00  1.06381E+03  6.256E-01  1.000E+01  3.500E-02  1.209E+00
   1    6    8     5     1    1.0432E+01  2.2686E-01   1.0205E+01  0.000E+00  0.000E+00  0.000E+00  1.05868E+03  6.790E-01  1.542E+01  6.166E-02  1.226E+00
   1    7    7     5     2    1.0205E+01  2.7894E-01   9.9265E+00  0.000E+00  0.000E+00  0.000E+00  1.05417E+03  6.732E-01  1.519E+01  7.594E-02  1.224E+00
   1    8    7     5     3    9.9265E+00  1.9221E-01   9.7343E+00  0.000E+00  0.000E+00  0.000E+00  1.04992E+03  6.676E-01  1.497E+01  5.241E-02  1.223E+00
   1    8    6     5     4    9.7343E+00  1.3577E-01   9.5985E+00  0.000E+00  0.000E+00  0.000E+00  1.04691E+03  6.637E-01  1.482E+01  3.706E-02  1.221E+00
   1    9    6     6     1    2.6192E+01  2.5512E-01   2.5937E+01  0.000E+00  0.000E+00  0.000E+00  1.04398E+03  1.252E+00  1.200E+01  6.000E-02  1.417E+00
   1   10    7     6     2    2.5937E+01  2.5468E-01   2.5683E+01  0.000E+00  0.000E+00  0.000E+00  1.03943E+03  1.245E+00  1.200E+01  6.000E-02  1.415E+00
   1   11    7     6     3    2.5683E+01  2.5424E-01   2.5428E+01  0.000E+00  0.000E+00  0.000E+00  1.03487E+03  1.237E+00  1.200E+01  6.000E-02  1.412E+00
   1   12    7     6     4    2.5428E+01  2.5379E-01   2.5175E+01  0.000E+00  0.000E+00  0.000E+00  1.03032E+03  1.230E+00  1.200E+01  6.000E-02  1.410E+00
   1   13    7     6     5    2.5175E+01  1.8997E-05   2.5175E+01  0.000E+00  0.000E+00  0.000E+00  1.02714E+03  1.226E+00  1.200E+01  2.400E-02  2.639E-04
   1   14    9     7     1    1.5000E+02  1.3355E+00   1.4866E+02  0.000E+00  0.000E+00  0.000E+00  1.03987E+03  2.288E+00  5.529E+01  5.593E-01  7.960E-01
   1   13    8     7     2    1.4866E+02  1.8262E+00   1.4684E+02  0.000E+00  0.000E+00  0.000E+00  1.03478E+03  2.279E+00  5.526E+01  6.148E-01  9.901E-01
   1   13    7     7     3    1.4684E+02  1.4272E+00   1.4541E+02  0.000E+00  0.000E+00  0.000E+00  1.02969E+03  2.271E+00  5.522E+01  5.585E-01  8.518E-01
   1   13    6     8     1    1.7059E+02  8.5895E-01   1.6973E+02  0.000E+00  0.000E+00  0.000E+00  1.02483E+03  2.953E+00  4.282E+01  4.364E-01  6.561E-01
   1   13    5     8     2    1.6973E+02  1.0409E-01   1.6962E+02  0.000E+00  0.000E+00  0.000E+00  1.01858E+03  2.950E+00  4.278E+01  4.359E-01  7.959E-02
   1   13    4     8     3    1.6962E+02 -2.9410E+00   1.7256E+02  0.000E+00  0.000E+00  0.000E+00  1.01233E+03  2.959E+00  4.291E+01  4.373E+00 -2.242E-01
   1   13    3     8     4    1.7256E+02 -4.0522E+00   1.7662E+02  0.000E+00  0.000E+00  0.000E+00  1.00611E+03  2.982E+00  4.324E+01  4.406E+00 -3.066E-01
   1   13    2     8     5    1.7662E+02 -2.9837E+00   1.7960E+02  0.000E+00  0.000E+00  0.000E+00  9.99879E+02  3.004E+00  4.356E+01  4.439E+00 -2.241E-01
   1   13    1     8     6    1.7960E+02 -2.2219E+00   1.8182E+02  0.000E+00  0.000E+00  0.000E+00  9.94896E+02  3.021E+00  4.380E+01  2.678E+00 -2.766E-01
   1    8    6     9     1    0.0000E+00  0.0000E+00   0.0000E+00  0.000E+00  0.000E+00  0.000E+00  1.07875E+03  0.000E+00  4.000E+00  0.000E+00  1.000E+00
   1    8    5     9     2    0.0000E+00  0.0000E+00   0.0000E+00  0.000E+00  0.000E+00  0.000E+00  1.07825E+03  0.000E+00  4.000E+00  0.000E+00  1.000E+00



 UBDSV3 SAVING "           GW ET" ON UNIT  61 AT TIME STEP 6, STRESS PERIOD 5
 UBDSV3 SAVING "    UZF RECHARGE" ON UNIT  61 AT TIME STEP 6, STRESS PERIOD 5
 UBDSV3 SAVING " SURFACE LEAKAGE" ON UNIT  61 AT TIME STEP 6, STRESS PERIOD 5
 UBDSV3 SAVING "       HORT+DUNN" ON UNIT  61 AT TIME STEP 6, STRESS PERIOD 5
 UBDSV3 SAVING "  STORAGE CHANGE" ON UNIT  61 AT TIME STEP 6, STRESS PERIOD 5


UNSATURATED ZONE PACKAGE VOLUMETRIC BUDGET FOR  TIME STEP     6 STRESS PERIOD    5
  ------------------------------------------------------------------------------



     CUMULATIVE VOLUMES      L**3       RATES FOR THIS TIME STEP      L**3/T
     ------------------                 ------------------------

           IN:                                      IN:
           ---                                      ---
        INFILTRATION =     9162552.5076          INFILTRATION =           4.5675

          OUT:                                     OUT:
          ----                                     ----
              UZF ET =     9005469.9094                UZF ET =           4.5675
        UZF RECHARGE =       73224.0000          UZF RECHARGE =       0.0000E+00

            IN - OUT =       83858.5982              IN - OUT =       0.0000E+00

          STORAGE:                                 STORAGE:
          --------                                 --------
      STORAGE CHANGE =       83858.6509        STORAGE CHANGE =       9.3370E-17

 PERCENT DISCREPANCY IS DIFFERENCE BETWEEN IN-OUT MINUS CHANGE IN STORAGE
 DIVIDED BY THE AVERAGE OF IN AND OUT TIMES 100

 PERCENT DISCREPANCY =           0.00     PERCENT DISCREPANCY =           0.00






 

            AG WELLS      PERIOD    5   STEP   6
 AG WELL      1   LAYER   1   ROW     6   COL     4   RATE   -0.620000    
 AG WELL      2   LAYER   1   ROW     6   COL     5   RATE   -0.620000    
 AG WELL      3   LAYER   1   ROW     7   COL     4   RATE   -0.620000    
 AG WELL      4   LAYER   1   ROW     7   COL     5   RATE   -0.620000    
 AG WELL      5   LAYER   1   ROW     8   COL     4   RATE   -0.620000    
 AG WELL      6   LAYER   1   ROW     8   COL     5   RATE   -0.620000    
 
 

   DIVERSION SEGMENTS     PERIOD    5   STEP   6
 SEGMENT      9   RATE     0.00000    
 
 

        SW IRRIGATION     PERIOD    5   STEP   6
 SEGMENT      9   ROW     6   COL     4   RATE     0.00000    
 SEGMENT      9   ROW     6   COL     5   RATE     0.00000    
 SEGMENT      9   ROW     7   COL     4   RATE     0.00000    
 SEGMENT      9   ROW     7   COL     5   RATE     0.00000    
 SEGMENT      9   ROW     8   COL     4   RATE     0.00000    
 SEGMENT      9   ROW     8   COL     5   RATE     0.00000    
 
 

        GW IRRIGATION     PERIOD    5   STEP   6
 AG WELL      1   ROW     6   COL     4   RATE    0.620000    
 AG WELL      2   ROW     6   COL     5   RATE    0.620000    
 AG WELL      3   ROW     7   COL     4   RATE    0.620000    
 AG WELL      4   ROW     7   COL     5   RATE    0.620000    
 AG WELL      5   ROW     8   COL     4   RATE    0.620000    
 AG WELL      6   ROW     8   COL     5   RATE    0.620000    
 
1
  VOLUMETRIC BUDGET FOR AGRICULTURAL FIELDS AT  END OF TIME STEP    6, STRESS PERIOD   5
  ------------------------------------------------------------------------------

     CUMULATIVE VOLUMES      L**3       RATES FOR THIS TIME STEP      L**3/T
     ------------------                 ------------------------

           IN:                                      IN:
           ---                                      ---
               AG WELLS  =     1956769.0000                 AG WELLS  =           3.7200
      DIVERSION SEGMENTS =           0.0000        DIVERSION SEGMENTS =           0.0000
       IRRIGATION PONDS  =           0.0000         IRRIGATION PONDS  =           0.0000
           GW IRRIGATION =           0.0000             GW IRRIGATION =           0.0000
           SW IRRIGATION =           0.0000             SW IRRIGATION =           0.0000
        SYSTEM LOSSES GW =           0.0000          SYSTEM LOSSES GW =           0.0000
        SYSTEM LOSSES SW =           0.0000          SYSTEM LOSSES SW =           0.0000

                TOTAL IN =     1956769.0000                  TOTAL IN =           3.7200

          OUT:                                     OUT:
          ----                                     ----
               AG WELLS  =           0.0000                 AG WELLS  =           0.0000
      DIVERSION SEGMENTS =           0.0000        DIVERSION SEGMENTS =           0.0000
       IRRIGATION PONDS  =           0.0000         IRRIGATION PONDS  =           0.0000
           GW IRRIGATION =     1956769.0000             GW IRRIGATION =           3.7200
           SW IRRIGATION =           0.0000             SW IRRIGATION =           0.0000
        SYSTEM LOSSES GW =           0.0000          SYSTEM LOSSES GW =           0.0000
        SYSTEM LOSSES SW =           0.0000          SYSTEM LOSSES SW =           0.0000

               TOTAL OUT =     1956769.0000                 TOTAL OUT =           3.7200

                IN - OUT =           0.0000                  IN - OUT =           0.0000

     PERCENT DISCREPANCY =           0.00         PERCENT DISCREPANCY =           0.00



1
  VOLUMETRIC BUDGET FOR ENTIRE MODEL AT END OF TIME STEP    6, STRESS PERIOD   5
  ------------------------------------------------------------------------------

     CUMULATIVE VOLUMES      L**3       RATES FOR THIS TIME STEP      L**3/T
     ------------------                 ------------------------

           IN:                                      IN:
           ---                                      ---
             STORAGE     =     7529033.0000               STORAGE     =           5.6175
       CONSTANT HEAD     =           0.0000         CONSTANT HEAD     =           0.0000
     HEAD DEP BOUNDS     =     2429027.2500       HEAD DEP BOUNDS     =           0.2857
      STREAM LEAKAGE     =   101875736.0000        STREAM LEAKAGE     =          11.3774
        UZF RECHARGE     =       73223.9531          UZF RECHARGE     =           0.0000
               GW ET     =           0.0000                 GW ET     =           0.0000
     SURFACE LEAKAGE     =           0.0000       SURFACE LEAKAGE     =           0.0000
           AG WELLS      =           0.0000             AG WELLS      =           0.0000

                TOTAL IN =   111907016.0000                  TOTAL IN =          17.2807

          OUT:                                     OUT:
          ----                                     ----
             STORAGE     =    18613358.0000               STORAGE     =           1.0255
       CONSTANT HEAD     =           0.0000         CONSTANT HEAD     =           0.0000
     HEAD DEP BOUNDS     =     2471256.2500       HEAD DEP BOUNDS     =           0.2936
      STREAM LEAKAGE     =    88817664.0000        STREAM LEAKAGE     =          12.1989
        UZF RECHARGE     =           0.0000          UZF RECHARGE     =           0.0000
               GW ET     =       51150.3047                 GW ET     =       4.1473E-02
     SURFACE LEAKAGE     =           0.0000       SURFACE LEAKAGE     =           0.0000
           AG WELLS      =     1956769.0000             AG WELLS      =           3.7200

               TOTAL OUT =   111910200.0000                 TOTAL OUT =          17.2794

                IN - OUT =       -3184.0000                  IN - OUT =       1.3237E-03

     PERCENT DISCREPANCY =          -0.00         PERCENT DISCREPANCY =           0.01






         TIME SUMMARY AT END OF TIME STEP    6 IN STRESS PERIOD    5
                    SECONDS     MINUTES      HOURS       DAYS        YEARS
                    -----------------------------------------------------------
   TIME STEP LENGTH  87667.      1461.1      24.352      1.0147     2.77799E-03
 STRESS PERIOD TIME 5.26000E+05  8766.7      146.11      6.0880     1.66679E-02
         TOTAL TIME 8.50239E+06 1.41707E+05  2361.8      98.407     0.26942    
1
 
 SOLVING FOR HEAD 
                                                   Max.-Head-Change                         Max.-Flux-Residual
  Residual-Control   Outer-Iter.   Inner-Iter.     Column Row Layer    Maximum-Head-Change  Column Row Layer    Maximum-Flux-Residual          L2-NORM 
          0                 1           2             4    7     1      -0.1127705713E-01       4    7    1        -0.5906369612E+00      0.1548766126E+01
          0                 2           2             4    7     1       0.1093972045E-02       4    7    1         0.5886395312E-01      0.1539055937E+00
          0                 3           1             4    7     1      -0.7449545557E-04       4    7    1        -0.4120479387E-02      0.1069071630E-01

    ------------------------------------------------
       NWT REQUIRED            3 OUTER ITERATIONS 
       AND A TOTAL OF          5 INNER ITERATIONS.
    ------------------------------------------------

 OUTPUT CONTROL FOR STRESS PERIOD    5   TIME STEP    7
    PRINT BUDGET
    SAVE BUDGET
 UBDSV1 SAVING "         STORAGE" ON UNIT 102 AT TIME STEP 7, STRESS PERIOD 5
 UBDSV2 SAVING "   CONSTANT HEAD" ON UNIT 102 AT TIME STEP 7, STRESS PERIOD 5
 UBDSV1 SAVING "FLOW RIGHT FACE " ON UNIT 102 AT TIME STEP 7, STRESS PERIOD 5
 UBDSV1 SAVING "FLOW FRONT FACE " ON UNIT 102 AT TIME STEP 7, STRESS PERIOD 5

  HEAD DEP BOUNDS   PERIOD    5   STEP     7
 BOUNDARY      1   LAYER   1   ROW    13   COL     1   RATE   -0.293400    
 BOUNDARY      2   LAYER   1   ROW    14   COL     9   RATE    0.285741    



 STREAM LISTING     PERIOD      5   STEP        7

 LAYER ROW COL. STREAM  RCH.  FLOW INTO     FLOW TO   FLOW OUT OF   OVRLND.     DIRECT     STREAM       STREAM     STREAM     STREAM   STREAMBED  STREAMBED
                SEG.NO.  NO.  STRM. RCH.    AQUIFER    STRM. RCH.    RUNOFF     PRECIP       ET          HEAD       DEPTH      WIDTH   CONDCTNC.   GRADIENT

   1    1    1     1     1    2.1000E+01  2.2592E-01   2.0774E+01  0.000E+00  0.000E+00  0.000E+00  1.09416E+03  1.115E+00  1.220E+01  5.490E-02  1.372E+00
   1    2    2     1     2    2.0774E+01  3.4916E-01   2.0425E+01  0.000E+00  0.000E+00  0.000E+00  1.08917E+03  1.110E+00  1.214E+01  8.495E-02  1.370E+00
   1    3    3     1     3    2.0425E+01  2.9709E-01   2.0128E+01  0.000E+00  0.000E+00  0.000E+00  1.08352E+03  1.105E+00  1.206E+01  7.238E-02  1.368E+00
   1    3    4     1     4    2.0128E+01  2.7299E-01   1.9855E+01  0.000E+00  0.000E+00  0.000E+00  1.07851E+03  1.100E+00  1.200E+01  6.659E-02  1.367E+00
   1    4    5     2     1    1.7855E+01  3.1056E-01   1.7544E+01  0.000E+00  0.000E+00  0.000E+00  1.07292E+03  9.816E-01  1.200E+01  7.800E-02  1.327E+00
   1    5    6     2     2    1.7544E+01  2.3834E-01   1.7306E+01  0.000E+00  0.000E+00  0.000E+00  1.06748E+03  9.724E-01  1.200E+01  6.000E-02  1.324E+00
   1    6    6     2     3    1.7306E+01  2.3787E-01   1.7068E+01  0.000E+00  0.000E+00  0.000E+00  1.06276E+03  9.644E-01  1.200E+01  6.000E-02  1.321E+00
   1    7    6     2     4    1.7068E+01  2.3738E-01   1.6831E+01  0.000E+00  0.000E+00  0.000E+00  1.05803E+03  9.564E-01  1.200E+01  6.000E-02  1.319E+00
   1    8    6     2     5    1.6831E+01  2.3690E-01   1.6594E+01  0.000E+00  0.000E+00  0.000E+00  1.05331E+03  9.483E-01  1.200E+01  6.000E-02  1.316E+00
   1    3    5     3     1    2.0000E+00  2.8252E-01   1.7175E+00  0.000E+00  0.000E+00  0.000E+00  1.07555E+03  1.909E+00  9.636E+00  7.227E-02  1.955E+00
   1    3    6     3     2    1.7175E+00  2.4905E-01   1.4684E+00  0.000E+00  0.000E+00  0.000E+00  1.07264E+03  1.727E+00  8.909E+00  6.682E-02  1.864E+00
   1    3    7     3     3    1.4684E+00  1.9718E-01   1.2712E+00  0.000E+00  0.000E+00  0.000E+00  1.06987E+03  1.555E+00  8.218E+00  5.547E-02  1.777E+00
   1    4    8     3     4    1.2712E+00  2.2567E-01   1.0456E+00  0.000E+00  0.000E+00  0.000E+00  1.06682E+03  1.364E+00  7.455E+00  6.709E-02  1.682E+00
   1    5    8     3     5    1.0456E+00  1.5790E-01   8.8768E-01  0.000E+00  0.000E+00  0.000E+00  1.06362E+03  1.164E+00  6.655E+00  4.991E-02  1.582E+00
   1    6    8     3     6    8.8768E-01  5.5980E-02   8.3170E-01  0.000E+00  0.000E+00  0.000E+00  1.06158E+03  1.036E+00  6.145E+00  1.844E-02  1.518E+00
   1    5   10     4     1    1.0000E+01  9.0919E-02   9.9091E+00  0.000E+00  0.000E+00  0.000E+00  1.07836E+03  6.368E-01  1.000E+01  2.500E-02  1.212E+00
   1    5    9     4     2    9.9091E+00  1.8158E-01   9.7275E+00  0.000E+00  0.000E+00  0.000E+00  1.07154E+03  6.315E-01  1.000E+01  5.000E-02  1.211E+00
   1    6    8     4     3    9.7275E+00  1.2689E-01   9.6006E+00  0.000E+00  0.000E+00  0.000E+00  1.06381E+03  6.256E-01  1.000E+01  3.500E-02  1.209E+00
   1    6    8     5     1    1.0432E+01  2.2686E-01   1.0205E+01  0.000E+00  0.000E+00  0.000E+00  1.05868E+03  6.790E-01  1.542E+01  6.166E-02  1.226E+00
   1    7    7     5     2    1.0205E+01  2.7894E-01   9.9265E+00  0.000E+00  0.000E+00  0.000E+00  1.05417E+03  6.732E-01  1.519E+01  7.594E-02  1.224E+00
   1    8    7     5     3    9.9265E+00  1.9221E-01   9.7343E+00  0.000E+00  0.000E+00  0.000E+00  1.04992E+03  6.676E-01  1.497E+01  5.241E-02  1.223E+00
   1    8    6     5     4    9.7343E+00  1.3577E-01   9.5985E+00  0.000E+00  0.000E+00  0.000E+00  1.04691E+03  6.637E-01  1.482E+01  3.706E-02  1.221E+00
   1    9    6     6     1    2.6192E+01  2.5512E-01   2.5937E+01  0.000E+00  0.000E+00  0.000E+00  1.04398E+03  1.252E+00  1.200E+01  6.000E-02  1.417E+00
   1   10    7     6     2    2.5937E+01  2.5468E-01   2.5683E+01  0.000E+00  0.000E+00  0.000E+00  1.03943E+03  1.245E+00  1.200E+01  6.000E-02  1.415E+00
   1   11    7     6     3    2.5683E+01  2.5424E-01   2.5428E+01  0.000E+00  0.000E+00  0.000E+00  1.03487E+03  1.237E+00  1.200E+01  6.000E-02  1.412E+00
   1   12    7     6     4    2.5428E+01  2.5379E-01   2.5175E+01  0.000E+00  0.000E+00  0.000E+00  1.03032E+03  1.230E+00  1.200E+01  6.000E-02  1.410E+00
   1   13    7     6     5    2.5175E+01  1.1956E-05   2.5175E+01  0.000E+00  0.000E+00  0.000E+00  1.02714E+03  1.226E+00  1.200E+01  2.400E-02  1.661E-04
   1   14    9     7     1    1.5000E+02  1.3356E+00   1.4866E+02  0.000E+00  0.000E+00  0.000E+00  1.03987E+03  2.288E+00  5.529E+01  5.593E-01  7.960E-01
   1   13    8     7     2    1.4866E+02  1.8260E+00   1.4684E+02  0.000E+00  0.000E+00  0.000E+00  1.03478E+03  2.279E+00  5.526E+01  6.148E-01  9.901E-01
   1   13    7     7     3    1.4684E+02  1.4270E+00   1.4541E+02  0.000E+00  0.000E+00  0.000E+00  1.02969E+03  2.271E+00  5.522E+01  5.585E-01  8.517E-01
   1   13    6     8     1    1.7059E+02  8.5939E-01   1.6973E+02  0.000E+00  0.000E+00  0.000E+00  1.02483E+03  2.953E+00  4.282E+01  4.364E-01  6.565E-01
   1   13    5     8     2    1.6973E+02  1.0450E-01   1.6962E+02  0.000E+00  0.000E+00  0.000E+00  1.01858E+03  2.950E+00  4.278E+01  4.359E-01  7.991E-02
   1   13    4     8     3    1.6962E+02 -2.9152E+00   1.7254E+02  0.000E+00  0.000E+00  0.000E+00  1.01233E+03  2.959E+00  4.291E+01  4.373E+00 -2.222E-01
   1   13    3     8     4    1.7254E+02 -4.0263E+00   1.7656E+02  0.000E+00  0.000E+00  0.000E+00  1.00611E+03  2.982E+00  4.323E+01  4.406E+00 -3.046E-01
   1   13    2     8     5    1.7656E+02 -2.9550E+00   1.7952E+02  0.000E+00  0.000E+00  0.000E+00  9.99879E+02  3.004E+00  4.356E+01  4.438E+00 -2.219E-01
   1   13    1     8     6    1.7952E+02 -2.2115E+00   1.8173E+02  0.000E+00  0.000E+00  0.000E+00  9.94895E+02  3.020E+00  4.379E+01  2.677E+00 -2.753E-01
   1    8    6     9     1    0.0000E+00  0.0000E+00   0.0000E+00  0.000E+00  0.000E+00  0.000E+00  1.07875E+03  0.000E+00  4.000E+00  0.000E+00  1.000E+00
   1    8    5     9     2    0.0000E+00  0.0000E+00   0.0000E+00  0.000E+00  0.000E+00  0.000E+00  1.07825E+03  0.000E+00  4.000E+00  0.000E+00  1.000E+00



 UBDSV3 SAVING "           GW ET" ON UNIT  61 AT TIME STEP 7, STRESS PERIOD 5
 UBDSV3 SAVING "    UZF RECHARGE" ON UNIT  61 AT TIME STEP 7, STRESS PERIOD 5
 UBDSV3 SAVING " SURFACE LEAKAGE" ON UNIT  61 AT TIME STEP 7, STRESS PERIOD 5
 UBDSV3 SAVING "       HORT+DUNN" ON UNIT  61 AT TIME STEP 7, STRESS PERIOD 5
 UBDSV3 SAVING "  STORAGE CHANGE" ON UNIT  61 AT TIME STEP 7, STRESS PERIOD 5


UNSATURATED ZONE PACKAGE VOLUMETRIC BUDGET FOR  TIME STEP     7 STRESS PERIOD    5
  ------------------------------------------------------------------------------



     CUMULATIVE VOLUMES      L**3       RATES FOR THIS TIME STEP      L**3/T
     ------------------                 ------------------------

           IN:                                      IN:
           ---                                      ---
        INFILTRATION =     9562969.9878          INFILTRATION =           4.5675

          OUT:                                     OUT:
          ----                                     ----
              UZF ET =     9405887.3896                UZF ET =           4.5675
        UZF RECHARGE =       73224.0000          UZF RECHARGE =       0.0000E+00

            IN - OUT =       83858.5982              IN - OUT =       0.0000E+00

          STORAGE:                                 STORAGE:
          --------                                 --------
      STORAGE CHANGE =       83858.6509        STORAGE CHANGE =       2.0749E-17

 PERCENT DISCREPANCY IS DIFFERENCE BETWEEN IN-OUT MINUS CHANGE IN STORAGE
 DIVIDED BY THE AVERAGE OF IN AND OUT TIMES 100

 PERCENT DISCREPANCY =           0.00     PERCENT DISCREPANCY =           0.00






 

            AG WELLS      PERIOD    5   STEP   7
 AG WELL      1   LAYER   1   ROW     6   COL     4   RATE   -0.620000    
 AG WELL      2   LAYER   1   ROW     6   COL     5   RATE   -0.620000    
 AG WELL      3   LAYER   1   ROW     7   COL     4   RATE   -0.620000    
 AG WELL      4   LAYER   1   ROW     7   COL     5   RATE   -0.620000    
 AG WELL      5   LAYER   1   ROW     8   COL     4   RATE   -0.620000    
 AG WELL      6   LAYER   1   ROW     8   COL     5   RATE   -0.620000    
 
 

   DIVERSION SEGMENTS     PERIOD    5   STEP   7
 SEGMENT      9   RATE     0.00000    
 
 

        SW IRRIGATION     PERIOD    5   STEP   7
 SEGMENT      9   ROW     6   COL     4   RATE     0.00000    
 SEGMENT      9   ROW     6   COL     5   RATE     0.00000    
 SEGMENT      9   ROW     7   COL     4   RATE     0.00000    
 SEGMENT      9   ROW     7   COL     5   RATE     0.00000    
 SEGMENT      9   ROW     8   COL     4   RATE     0.00000    
 SEGMENT      9   ROW     8   COL     5   RATE     0.00000    
 
 

        GW IRRIGATION     PERIOD    5   STEP   7
 AG WELL      1   ROW     6   COL     4   RATE    0.620000    
 AG WELL      2   ROW     6   COL     5   RATE    0.620000    
 AG WELL      3   ROW     7   COL     4   RATE    0.620000    
 AG WELL      4   ROW     7   COL     5   RATE    0.620000    
 AG WELL      5   ROW     8   COL     4   RATE    0.620000    
 AG WELL      6   ROW     8   COL     5   RATE    0.620000    
 
1
  VOLUMETRIC BUDGET FOR AGRICULTURAL FIELDS AT  END OF TIME STEP    7, STRESS PERIOD   5
  ------------------------------------------------------------------------------

     CUMULATIVE VOLUMES      L**3       RATES FOR THIS TIME STEP      L**3/T
     ------------------                 ------------------------

           IN:                                      IN:
           ---                                      ---
               AG WELLS  =     2282889.0000                 AG WELLS  =           3.7200
      DIVERSION SEGMENTS =           0.0000        DIVERSION SEGMENTS =           0.0000
       IRRIGATION PONDS  =           0.0000         IRRIGATION PONDS  =           0.0000
           GW IRRIGATION =           0.0000             GW IRRIGATION =           0.0000
           SW IRRIGATION =           0.0000             SW IRRIGATION =           0.0000
        SYSTEM LOSSES GW =           0.0000          SYSTEM LOSSES GW =           0.0000
        SYSTEM LOSSES SW =           0.0000          SYSTEM LOSSES SW =           0.0000

                TOTAL IN =     2282889.0000                  TOTAL IN =           3.7200

          OUT:                                     OUT:
          ----                                     ----
               AG WELLS  =           0.0000                 AG WELLS  =           0.0000
      DIVERSION SEGMENTS =           0.0000        DIVERSION SEGMENTS =           0.0000
       IRRIGATION PONDS  =           0.0000         IRRIGATION PONDS  =           0.0000
           GW IRRIGATION =     2282889.0000             GW IRRIGATION =           3.7200
           SW IRRIGATION =           0.0000             SW IRRIGATION =           0.0000
        SYSTEM LOSSES GW =           0.0000          SYSTEM LOSSES GW =           0.0000
        SYSTEM LOSSES SW =           0.0000          SYSTEM LOSSES SW =           0.0000

               TOTAL OUT =     2282889.0000                 TOTAL OUT =           3.7200

                IN - OUT =           0.0000                  IN - OUT =           0.0000

     PERCENT DISCREPANCY =           0.00         PERCENT DISCREPANCY =           0.00



1
  VOLUMETRIC BUDGET FOR ENTIRE MODEL AT END OF TIME STEP    7, STRESS PERIOD   5
  ------------------------------------------------------------------------------

     CUMULATIVE VOLUMES      L**3       RATES FOR THIS TIME STEP      L**3/T
     ------------------                 ------------------------

           IN:                                      IN:
           ---                                      ---
             STORAGE     =     8009858.0000               STORAGE     =           5.4847
       CONSTANT HEAD     =           0.0000         CONSTANT HEAD     =           0.0000
     HEAD DEP BOUNDS     =     2454077.2500       HEAD DEP BOUNDS     =           0.2857
      STREAM LEAKAGE     =   102873208.0000        STREAM LEAKAGE     =          11.3780
        UZF RECHARGE     =       73223.9531          UZF RECHARGE     =           0.0000
               GW ET     =           0.0000                 GW ET     =           0.0000
     SURFACE LEAKAGE     =           0.0000       SURFACE LEAKAGE     =           0.0000
           AG WELLS      =           0.0000             AG WELLS      =           0.0000

                TOTAL IN =   113410368.0000                  TOTAL IN =          17.1484

          OUT:                                     OUT:
          ----                                     ----
             STORAGE     =    18700942.0000               STORAGE     =           0.9991
       CONSTANT HEAD     =           0.0000         CONSTANT HEAD     =           0.0000
     HEAD DEP BOUNDS     =     2496977.5000       HEAD DEP BOUNDS     =           0.2934
      STREAM LEAKAGE     =    89879144.0000        STREAM LEAKAGE     =          12.1081
        UZF RECHARGE     =           0.0000          UZF RECHARGE     =           0.0000
               GW ET     =       53481.1328                 GW ET     =       2.6587E-02
     SURFACE LEAKAGE     =           0.0000       SURFACE LEAKAGE     =           0.0000
           AG WELLS      =     2282889.0000             AG WELLS      =           3.7200

               TOTAL OUT =   113413432.0000                 TOTAL OUT =          17.1471

                IN - OUT =       -3064.0000                  IN - OUT =       1.2932E-03

     PERCENT DISCREPANCY =          -0.00         PERCENT DISCREPANCY =           0.01






         TIME SUMMARY AT END OF TIME STEP    7 IN STRESS PERIOD    5
                    SECONDS     MINUTES      HOURS       DAYS        YEARS
                    -----------------------------------------------------------
   TIME STEP LENGTH  87667.      1461.1      24.352      1.0147     2.77799E-03
 STRESS PERIOD TIME 6.13667E+05  10228.      170.46      7.1026     1.94459E-02
         TOTAL TIME 8.59006E+06 1.43168E+05  2386.1      99.422     0.27220    
1
 
 SOLVING FOR HEAD 
                                                   Max.-Head-Change                         Max.-Flux-Residual
  Residual-Control   Outer-Iter.   Inner-Iter.     Column Row Layer    Maximum-Head-Change  Column Row Layer    Maximum-Flux-Residual          L2-NORM 
          0                 1           2             4    7     1      -0.1119288992E-01       4    7    1        -0.5861099841E+00      0.1501298436E+01
          0                 2           2             4    7     1       0.1088761418E-02       4    7    1         0.5861089849E-01      0.1480990256E+00
          0                 3           1             4    7     1      -0.7414063239E-04       4    7    1        -0.4102765610E-02      0.1030096860E-01

    ------------------------------------------------
       NWT REQUIRED            3 OUTER ITERATIONS 
       AND A TOTAL OF          5 INNER ITERATIONS.
    ------------------------------------------------

 OUTPUT CONTROL FOR STRESS PERIOD    5   TIME STEP    8
    PRINT BUDGET
    SAVE BUDGET
 UBDSV1 SAVING "         STORAGE" ON UNIT 102 AT TIME STEP 8, STRESS PERIOD 5
 UBDSV2 SAVING "   CONSTANT HEAD" ON UNIT 102 AT TIME STEP 8, STRESS PERIOD 5
 UBDSV1 SAVING "FLOW RIGHT FACE " ON UNIT 102 AT TIME STEP 8, STRESS PERIOD 5
 UBDSV1 SAVING "FLOW FRONT FACE " ON UNIT 102 AT TIME STEP 8, STRESS PERIOD 5

  HEAD DEP BOUNDS   PERIOD    5   STEP     8
 BOUNDARY      1   LAYER   1   ROW    13   COL     1   RATE   -0.293243    
 BOUNDARY      2   LAYER   1   ROW    14   COL     9   RATE    0.285742    



 STREAM LISTING     PERIOD      5   STEP        8

 LAYER ROW COL. STREAM  RCH.  FLOW INTO     FLOW TO   FLOW OUT OF   OVRLND.     DIRECT     STREAM       STREAM     STREAM     STREAM   STREAMBED  STREAMBED
                SEG.NO.  NO.  STRM. RCH.    AQUIFER    STRM. RCH.    RUNOFF     PRECIP       ET          HEAD       DEPTH      WIDTH   CONDCTNC.   GRADIENT

   1    1    1     1     1    2.1000E+01  2.2592E-01   2.0774E+01  0.000E+00  0.000E+00  0.000E+00  1.09416E+03  1.115E+00  1.220E+01  5.490E-02  1.372E+00
   1    2    2     1     2    2.0774E+01  3.4916E-01   2.0425E+01  0.000E+00  0.000E+00  0.000E+00  1.08917E+03  1.110E+00  1.214E+01  8.495E-02  1.370E+00
   1    3    3     1     3    2.0425E+01  2.9709E-01   2.0128E+01  0.000E+00  0.000E+00  0.000E+00  1.08352E+03  1.105E+00  1.206E+01  7.238E-02  1.368E+00
   1    3    4     1     4    2.0128E+01  2.7299E-01   1.9855E+01  0.000E+00  0.000E+00  0.000E+00  1.07851E+03  1.100E+00  1.200E+01  6.659E-02  1.367E+00
   1    4    5     2     1    1.7855E+01  3.1056E-01   1.7544E+01  0.000E+00  0.000E+00  0.000E+00  1.07292E+03  9.816E-01  1.200E+01  7.800E-02  1.327E+00
   1    5    6     2     2    1.7544E+01  2.3834E-01   1.7306E+01  0.000E+00  0.000E+00  0.000E+00  1.06748E+03  9.724E-01  1.200E+01  6.000E-02  1.324E+00
   1    6    6     2     3    1.7306E+01  2.3787E-01   1.7068E+01  0.000E+00  0.000E+00  0.000E+00  1.06276E+03  9.644E-01  1.200E+01  6.000E-02  1.321E+00
   1    7    6     2     4    1.7068E+01  2.3738E-01   1.6831E+01  0.000E+00  0.000E+00  0.000E+00  1.05803E+03  9.564E-01  1.200E+01  6.000E-02  1.319E+00
   1    8    6     2     5    1.6831E+01  2.3690E-01   1.6594E+01  0.000E+00  0.000E+00  0.000E+00  1.05331E+03  9.483E-01  1.200E+01  6.000E-02  1.316E+00
   1    3    5     3     1    2.0000E+00  2.8252E-01   1.7175E+00  0.000E+00  0.000E+00  0.000E+00  1.07555E+03  1.909E+00  9.636E+00  7.227E-02  1.955E+00
   1    3    6     3     2    1.7175E+00  2.4905E-01   1.4684E+00  0.000E+00  0.000E+00  0.000E+00  1.07264E+03  1.727E+00  8.909E+00  6.682E-02  1.864E+00
   1    3    7     3     3    1.4684E+00  1.9718E-01   1.2712E+00  0.000E+00  0.000E+00  0.000E+00  1.06987E+03  1.555E+00  8.218E+00  5.547E-02  1.777E+00
   1    4    8     3     4    1.2712E+00  2.2567E-01   1.0456E+00  0.000E+00  0.000E+00  0.000E+00  1.06682E+03  1.364E+00  7.455E+00  6.709E-02  1.682E+00
   1    5    8     3     5    1.0456E+00  1.5790E-01   8.8768E-01  0.000E+00  0.000E+00  0.000E+00  1.06362E+03  1.164E+00  6.655E+00  4.991E-02  1.582E+00
   1    6    8     3     6    8.8768E-01  5.5980E-02   8.3170E-01  0.000E+00  0.000E+00  0.000E+00  1.06158E+03  1.036E+00  6.145E+00  1.844E-02  1.518E+00
   1    5   10     4     1    1.0000E+01  9.0919E-02   9.9091E+00  0.000E+00  0.000E+00  0.000E+00  1.07836E+03  6.368E-01  1.000E+01  2.500E-02  1.212E+00
   1    5    9     4     2    9.9091E+00  1.8158E-01   9.7275E+00  0.000E+00  0.000E+00  0.000E+00  1.07154E+03  6.315E-01  1.000E+01  5.000E-02  1.211E+00
   1    6    8     4     3    9.7275E+00  1.2689E-01   9.6006E+00  0.000E+00  0.000E+00  0.000E+00  1.06381E+03  6.256E-01  1.000E+01  3.500E-02  1.209E+00
   1    6    8     5     1    1.0432E+01  2.2686E-01   1.0205E+01  0.000E+00  0.000E+00  0.000E+00  1.05868E+03  6.790E-01  1.542E+01  6.166E-02  1.226E+00
   1    7    7     5     2    1.0205E+01  2.7894E-01   9.9265E+00  0.000E+00  0.000E+00  0.000E+00  1.05417E+03  6.732E-01  1.519E+01  7.594E-02  1.224E+00
   1    8    7     5     3    9.9265E+00  1.9221E-01   9.7343E+00  0.000E+00  0.000E+00  0.000E+00  1.04992E+03  6.676E-01  1.497E+01  5.241E-02  1.223E+00
   1    8    6     5     4    9.7343E+00  1.3577E-01   9.5985E+00  0.000E+00  0.000E+00  0.000E+00  1.04691E+03  6.637E-01  1.482E+01  3.706E-02  1.221E+00
   1    9    6     6     1    2.6192E+01  2.5512E-01   2.5937E+01  0.000E+00  0.000E+00  0.000E+00  1.04398E+03  1.252E+00  1.200E+01  6.000E-02  1.417E+00
   1   10    7     6     2    2.5937E+01  2.5468E-01   2.5683E+01  0.000E+00  0.000E+00  0.000E+00  1.03943E+03  1.245E+00  1.200E+01  6.000E-02  1.415E+00
   1   11    7     6     3    2.5683E+01  2.5424E-01   2.5428E+01  0.000E+00  0.000E+00  0.000E+00  1.03487E+03  1.237E+00  1.200E+01  6.000E-02  1.412E+00
   1   12    7     6     4    2.5428E+01  2.5379E-01   2.5175E+01  0.000E+00  0.000E+00  0.000E+00  1.03032E+03  1.230E+00  1.200E+01  6.000E-02  1.410E+00
   1   13    7     6     5    2.5175E+01  5.3245E-06   2.5175E+01  0.000E+00  0.000E+00  0.000E+00  1.02714E+03  1.226E+00  1.200E+01  2.400E-02  7.395E-05
   1   14    9     7     1    1.5000E+02  1.3356E+00   1.4866E+02  0.000E+00  0.000E+00  0.000E+00  1.03987E+03  2.288E+00  5.529E+01  5.593E-01  7.960E-01
   1   13    8     7     2    1.4866E+02  1.8259E+00   1.4684E+02  0.000E+00  0.000E+00  0.000E+00  1.03478E+03  2.279E+00  5.526E+01  6.148E-01  9.900E-01
   1   13    7     7     3    1.4684E+02  1.4268E+00   1.4541E+02  0.000E+00  0.000E+00  0.000E+00  1.02969E+03  2.271E+00  5.522E+01  5.585E-01  8.516E-01
   1   13    6     8     1    1.7059E+02  8.5982E-01   1.6973E+02  0.000E+00  0.000E+00  0.000E+00  1.02483E+03  2.953E+00  4.282E+01  4.364E-01  6.568E-01
   1   13    5     8     2    1.6973E+02  1.0492E-01   1.6962E+02  0.000E+00  0.000E+00  0.000E+00  1.01858E+03  2.950E+00  4.278E+01  4.359E-01  8.023E-02
   1   13    4     8     3    1.6962E+02 -2.8919E+00   1.7251E+02  0.000E+00  0.000E+00  0.000E+00  1.01233E+03  2.959E+00  4.291E+01  4.372E+00 -2.205E-01
   1   13    3     8     4    1.7251E+02 -4.0030E+00   1.7652E+02  0.000E+00  0.000E+00  0.000E+00  1.00611E+03  2.981E+00  4.323E+01  4.405E+00 -3.029E-01
   1   13    2     8     5    1.7652E+02 -2.9285E+00   1.7944E+02  0.000E+00  0.000E+00  0.000E+00  9.99878E+02  3.003E+00  4.355E+01  4.438E+00 -2.200E-01
   1   13    1     8     6    1.7944E+02 -2.2014E+00   1.8165E+02  0.000E+00  0.000E+00  0.000E+00  9.94895E+02  3.020E+00  4.378E+01  2.677E+00 -2.741E-01
   1    8    6     9     1    0.0000E+00  0.0000E+00   0.0000E+00  0.000E+00  0.000E+00  0.000E+00  1.07875E+03  0.000E+00  4.000E+00  0.000E+00  1.000E+00
   1    8    5     9     2    0.0000E+00  0.0000E+00   0.0000E+00  0.000E+00  0.000E+00  0.000E+00  1.07825E+03  0.000E+00  4.000E+00  0.000E+00  1.000E+00



 UBDSV3 SAVING "           GW ET" ON UNIT  61 AT TIME STEP 8, STRESS PERIOD 5
 UBDSV3 SAVING "    UZF RECHARGE" ON UNIT  61 AT TIME STEP 8, STRESS PERIOD 5
 UBDSV3 SAVING " SURFACE LEAKAGE" ON UNIT  61 AT TIME STEP 8, STRESS PERIOD 5
 UBDSV3 SAVING "       HORT+DUNN" ON UNIT  61 AT TIME STEP 8, STRESS PERIOD 5
 UBDSV3 SAVING "  STORAGE CHANGE" ON UNIT  61 AT TIME STEP 8, STRESS PERIOD 5


UNSATURATED ZONE PACKAGE VOLUMETRIC BUDGET FOR  TIME STEP     8 STRESS PERIOD    5
  ------------------------------------------------------------------------------



     CUMULATIVE VOLUMES      L**3       RATES FOR THIS TIME STEP      L**3/T
     ------------------                 ------------------------

           IN:                                      IN:
           ---                                      ---
        INFILTRATION =     9963387.4681          INFILTRATION =           4.5675

          OUT:                                     OUT:
          ----                                     ----
              UZF ET =     9806304.8699                UZF ET =           4.5675
        UZF RECHARGE =       73224.0000          UZF RECHARGE =       0.0000E+00

            IN - OUT =       83858.5982              IN - OUT =       0.0000E+00

          STORAGE:                                 STORAGE:
          --------                                 --------
      STORAGE CHANGE =       83858.6509        STORAGE CHANGE =       2.0749E-16

 PERCENT DISCREPANCY IS DIFFERENCE BETWEEN IN-OUT MINUS CHANGE IN STORAGE
 DIVIDED BY THE AVERAGE OF IN AND OUT TIMES 100

 PERCENT DISCREPANCY =          -0.00     PERCENT DISCREPANCY =           0.00






 

            AG WELLS      PERIOD    5   STEP   8
 AG WELL      1   LAYER   1   ROW     6   COL     4   RATE   -0.620000    
 AG WELL      2   LAYER   1   ROW     6   COL     5   RATE   -0.620000    
 AG WELL      3   LAYER   1   ROW     7   COL     4   RATE   -0.620000    
 AG WELL      4   LAYER   1   ROW     7   COL     5   RATE   -0.620000    
 AG WELL      5   LAYER   1   ROW     8   COL     4   RATE   -0.620000    
 AG WELL      6   LAYER   1   ROW     8   COL     5   RATE   -0.620000    
 
 

   DIVERSION SEGMENTS     PERIOD    5   STEP   8
 SEGMENT      9   RATE     0.00000    
 
 

        SW IRRIGATION     PERIOD    5   STEP   8
 SEGMENT      9   ROW     6   COL     4   RATE     0.00000    
 SEGMENT      9   ROW     6   COL     5   RATE     0.00000    
 SEGMENT      9   ROW     7   COL     4   RATE     0.00000    
 SEGMENT      9   ROW     7   COL     5   RATE     0.00000    
 SEGMENT      9   ROW     8   COL     4   RATE     0.00000    
 SEGMENT      9   ROW     8   COL     5   RATE     0.00000    
 
 

        GW IRRIGATION     PERIOD    5   STEP   8
 AG WELL      1   ROW     6   COL     4   RATE    0.620000    
 AG WELL      2   ROW     6   COL     5   RATE    0.620000    
 AG WELL      3   ROW     7   COL     4   RATE    0.620000    
 AG WELL      4   ROW     7   COL     5   RATE    0.620000    
 AG WELL      5   ROW     8   COL     4   RATE    0.620000    
 AG WELL      6   ROW     8   COL     5   RATE    0.620000    
 
1
  VOLUMETRIC BUDGET FOR AGRICULTURAL FIELDS AT  END OF TIME STEP    8, STRESS PERIOD   5
  ------------------------------------------------------------------------------

     CUMULATIVE VOLUMES      L**3       RATES FOR THIS TIME STEP      L**3/T
     ------------------                 ------------------------

           IN:                                      IN:
           ---                                      ---
               AG WELLS  =     2609009.0000                 AG WELLS  =           3.7200
      DIVERSION SEGMENTS =           0.0000        DIVERSION SEGMENTS =           0.0000
       IRRIGATION PONDS  =           0.0000         IRRIGATION PONDS  =           0.0000
           GW IRRIGATION =           0.0000             GW IRRIGATION =           0.0000
           SW IRRIGATION =           0.0000             SW IRRIGATION =           0.0000
        SYSTEM LOSSES GW =           0.0000          SYSTEM LOSSES GW =           0.0000
        SYSTEM LOSSES SW =           0.0000          SYSTEM LOSSES SW =           0.0000

                TOTAL IN =     2609009.0000                  TOTAL IN =           3.7200

          OUT:                                     OUT:
          ----                                     ----
               AG WELLS  =           0.0000                 AG WELLS  =           0.0000
      DIVERSION SEGMENTS =           0.0000        DIVERSION SEGMENTS =           0.0000
       IRRIGATION PONDS  =           0.0000         IRRIGATION PONDS  =           0.0000
           GW IRRIGATION =     2609009.0000             GW IRRIGATION =           3.7200
           SW IRRIGATION =           0.0000             SW IRRIGATION =           0.0000
        SYSTEM LOSSES GW =           0.0000          SYSTEM LOSSES GW =           0.0000
        SYSTEM LOSSES SW =           0.0000          SYSTEM LOSSES SW =           0.0000

               TOTAL OUT =     2609009.0000                 TOTAL OUT =           3.7200

                IN - OUT =           0.0000                  IN - OUT =           0.0000

     PERCENT DISCREPANCY =           0.00         PERCENT DISCREPANCY =           0.00



1
  VOLUMETRIC BUDGET FOR ENTIRE MODEL AT END OF TIME STEP    8, STRESS PERIOD   5
  ------------------------------------------------------------------------------

     CUMULATIVE VOLUMES      L**3       RATES FOR THIS TIME STEP      L**3/T
     ------------------                 ------------------------

           IN:                                      IN:
           ---                                      ---
             STORAGE     =     8480411.0000               STORAGE     =           5.3675
       CONSTANT HEAD     =           0.0000         CONSTANT HEAD     =           0.0000
     HEAD DEP BOUNDS     =     2479127.2500       HEAD DEP BOUNDS     =           0.2857
      STREAM LEAKAGE     =   103870728.0000        STREAM LEAKAGE     =          11.3786
        UZF RECHARGE     =       73223.9531          UZF RECHARGE     =           0.0000
               GW ET     =           0.0000                 GW ET     =           0.0000
     SURFACE LEAKAGE     =           0.0000       SURFACE LEAKAGE     =           0.0000
           AG WELLS      =           0.0000             AG WELLS      =           0.0000

                TOTAL IN =   114903488.0000                  TOTAL IN =          17.0318

          OUT:                                     OUT:
          ----                                     ----
             STORAGE     =    18786316.0000               STORAGE     =           0.9738
       CONSTANT HEAD     =           0.0000         CONSTANT HEAD     =           0.0000
     HEAD DEP BOUNDS     =     2522685.0000       HEAD DEP BOUNDS     =           0.2932
      STREAM LEAKAGE     =    90933320.0000        STREAM LEAKAGE     =          12.0248
        UZF RECHARGE     =           0.0000          UZF RECHARGE     =           0.0000
               GW ET     =       55117.9648                 GW ET     =       1.8671E-02
     SURFACE LEAKAGE     =           0.0000       SURFACE LEAKAGE     =           0.0000
           AG WELLS      =     2609009.0000             AG WELLS      =           3.7200

               TOTAL OUT =   114906448.0000                 TOTAL OUT =          17.0306

                IN - OUT =       -2960.0000                  IN - OUT =       1.2474E-03

     PERCENT DISCREPANCY =          -0.00         PERCENT DISCREPANCY =           0.01






         TIME SUMMARY AT END OF TIME STEP    8 IN STRESS PERIOD    5
                    SECONDS     MINUTES      HOURS       DAYS        YEARS
                    -----------------------------------------------------------
   TIME STEP LENGTH  87667.      1461.1      24.352      1.0147     2.77799E-03
 STRESS PERIOD TIME 7.01333E+05  11689.      194.81      8.1173     2.22239E-02
         TOTAL TIME 8.67773E+06 1.44629E+05  2410.5      100.44     0.27498    
1
 
 SOLVING FOR HEAD 
                                                   Max.-Head-Change                         Max.-Flux-Residual
  Residual-Control   Outer-Iter.   Inner-Iter.     Column Row Layer    Maximum-Head-Change  Column Row Layer    Maximum-Flux-Residual          L2-NORM 
          0                 1           2             4    7     1      -0.1110328246E-01       4    7    1        -0.5815872137E+00      0.1459794534E+01
          0                 2           2             4    7     1       0.1080045007E-02       4    7    1         0.5815861787E-01      0.1453004275E+00
          0                 3           1             4    7     1      -0.7354707784E-04       4    7    1        -0.4071106001E-02      0.1010802805E-01

    ------------------------------------------------
       NWT REQUIRED            3 OUTER ITERATIONS 
       AND A TOTAL OF          5 INNER ITERATIONS.
    ------------------------------------------------

 OUTPUT CONTROL FOR STRESS PERIOD    5   TIME STEP    9
    PRINT BUDGET
    SAVE BUDGET
 UBDSV1 SAVING "         STORAGE" ON UNIT 102 AT TIME STEP 9, STRESS PERIOD 5
 UBDSV2 SAVING "   CONSTANT HEAD" ON UNIT 102 AT TIME STEP 9, STRESS PERIOD 5
 UBDSV1 SAVING "FLOW RIGHT FACE " ON UNIT 102 AT TIME STEP 9, STRESS PERIOD 5
 UBDSV1 SAVING "FLOW FRONT FACE " ON UNIT 102 AT TIME STEP 9, STRESS PERIOD 5

  HEAD DEP BOUNDS   PERIOD    5   STEP     9
 BOUNDARY      1   LAYER   1   ROW    13   COL     1   RATE   -0.293092    
 BOUNDARY      2   LAYER   1   ROW    14   COL     9   RATE    0.285742    



 STREAM LISTING     PERIOD      5   STEP        9

 LAYER ROW COL. STREAM  RCH.  FLOW INTO     FLOW TO   FLOW OUT OF   OVRLND.     DIRECT     STREAM       STREAM     STREAM     STREAM   STREAMBED  STREAMBED
                SEG.NO.  NO.  STRM. RCH.    AQUIFER    STRM. RCH.    RUNOFF     PRECIP       ET          HEAD       DEPTH      WIDTH   CONDCTNC.   GRADIENT

   1    1    1     1     1    2.1000E+01  2.2592E-01   2.0774E+01  0.000E+00  0.000E+00  0.000E+00  1.09416E+03  1.115E+00  1.220E+01  5.490E-02  1.372E+00
   1    2    2     1     2    2.0774E+01  3.4916E-01   2.0425E+01  0.000E+00  0.000E+00  0.000E+00  1.08917E+03  1.110E+00  1.214E+01  8.495E-02  1.370E+00
   1    3    3     1     3    2.0425E+01  2.9709E-01   2.0128E+01  0.000E+00  0.000E+00  0.000E+00  1.08352E+03  1.105E+00  1.206E+01  7.238E-02  1.368E+00
   1    3    4     1     4    2.0128E+01  2.7299E-01   1.9855E+01  0.000E+00  0.000E+00  0.000E+00  1.07851E+03  1.100E+00  1.200E+01  6.659E-02  1.367E+00
   1    4    5     2     1    1.7855E+01  3.1056E-01   1.7544E+01  0.000E+00  0.000E+00  0.000E+00  1.07292E+03  9.816E-01  1.200E+01  7.800E-02  1.327E+00
   1    5    6     2     2    1.7544E+01  2.3834E-01   1.7306E+01  0.000E+00  0.000E+00  0.000E+00  1.06748E+03  9.724E-01  1.200E+01  6.000E-02  1.324E+00
   1    6    6     2     3    1.7306E+01  2.3787E-01   1.7068E+01  0.000E+00  0.000E+00  0.000E+00  1.06276E+03  9.644E-01  1.200E+01  6.000E-02  1.321E+00
   1    7    6     2     4    1.7068E+01  2.3738E-01   1.6831E+01  0.000E+00  0.000E+00  0.000E+00  1.05803E+03  9.564E-01  1.200E+01  6.000E-02  1.319E+00
   1    8    6     2     5    1.6831E+01  2.3690E-01   1.6594E+01  0.000E+00  0.000E+00  0.000E+00  1.05331E+03  9.483E-01  1.200E+01  6.000E-02  1.316E+00
   1    3    5     3     1    2.0000E+00  2.8252E-01   1.7175E+00  0.000E+00  0.000E+00  0.000E+00  1.07555E+03  1.909E+00  9.636E+00  7.227E-02  1.955E+00
   1    3    6     3     2    1.7175E+00  2.4905E-01   1.4684E+00  0.000E+00  0.000E+00  0.000E+00  1.07264E+03  1.727E+00  8.909E+00  6.682E-02  1.864E+00
   1    3    7     3     3    1.4684E+00  1.9718E-01   1.2712E+00  0.000E+00  0.000E+00  0.000E+00  1.06987E+03  1.555E+00  8.218E+00  5.547E-02  1.777E+00
   1    4    8     3     4    1.2712E+00  2.2567E-01   1.0456E+00  0.000E+00  0.000E+00  0.000E+00  1.06682E+03  1.364E+00  7.455E+00  6.709E-02  1.682E+00
   1    5    8     3     5    1.0456E+00  1.5790E-01   8.8768E-01  0.000E+00  0.000E+00  0.000E+00  1.06362E+03  1.164E+00  6.655E+00  4.991E-02  1.582E+00
   1    6    8     3     6    8.8768E-01  5.5980E-02   8.3170E-01  0.000E+00  0.000E+00  0.000E+00  1.06158E+03  1.036E+00  6.145E+00  1.844E-02  1.518E+00
   1    5   10     4     1    1.0000E+01  9.0919E-02   9.9091E+00  0.000E+00  0.000E+00  0.000E+00  1.07836E+03  6.368E-01  1.000E+01  2.500E-02  1.212E+00
   1    5    9     4     2    9.9091E+00  1.8158E-01   9.7275E+00  0.000E+00  0.000E+00  0.000E+00  1.07154E+03  6.315E-01  1.000E+01  5.000E-02  1.211E+00
   1    6    8     4     3    9.7275E+00  1.2689E-01   9.6006E+00  0.000E+00  0.000E+00  0.000E+00  1.06381E+03  6.256E-01  1.000E+01  3.500E-02  1.209E+00
   1    6    8     5     1    1.0432E+01  2.2686E-01   1.0205E+01  0.000E+00  0.000E+00  0.000E+00  1.05868E+03  6.790E-01  1.542E+01  6.166E-02  1.226E+00
   1    7    7     5     2    1.0205E+01  2.7894E-01   9.9265E+00  0.000E+00  0.000E+00  0.000E+00  1.05417E+03  6.732E-01  1.519E+01  7.594E-02  1.224E+00
   1    8    7     5     3    9.9265E+00  1.9221E-01   9.7343E+00  0.000E+00  0.000E+00  0.000E+00  1.04992E+03  6.676E-01  1.497E+01  5.241E-02  1.223E+00
   1    8    6     5     4    9.7343E+00  1.3577E-01   9.5985E+00  0.000E+00  0.000E+00  0.000E+00  1.04691E+03  6.637E-01  1.482E+01  3.706E-02  1.221E+00
   1    9    6     6     1    2.6192E+01  2.5512E-01   2.5937E+01  0.000E+00  0.000E+00  0.000E+00  1.04398E+03  1.252E+00  1.200E+01  6.000E-02  1.417E+00
   1   10    7     6     2    2.5937E+01  2.5468E-01   2.5683E+01  0.000E+00  0.000E+00  0.000E+00  1.03943E+03  1.245E+00  1.200E+01  6.000E-02  1.415E+00
   1   11    7     6     3    2.5683E+01  2.5424E-01   2.5428E+01  0.000E+00  0.000E+00  0.000E+00  1.03487E+03  1.237E+00  1.200E+01  6.000E-02  1.412E+00
   1   12    7     6     4    2.5428E+01  2.5379E-01   2.5175E+01  0.000E+00  0.000E+00  0.000E+00  1.03032E+03  1.230E+00  1.200E+01  6.000E-02  1.410E+00
   1   13    7     6     5    2.5175E+01 -9.1246E-06   2.5175E+01  0.000E+00  0.000E+00  0.000E+00  1.02714E+03  1.226E+00  1.200E+01  2.400E-01 -1.267E-05
   1   14    9     7     1    1.5000E+02  1.3356E+00   1.4866E+02  0.000E+00  0.000E+00  0.000E+00  1.03987E+03  2.288E+00  5.529E+01  5.593E-01  7.960E-01
   1   13    8     7     2    1.4866E+02  1.8258E+00   1.4684E+02  0.000E+00  0.000E+00  0.000E+00  1.03478E+03  2.279E+00  5.526E+01  6.148E-01  9.899E-01
   1   13    7     7     3    1.4684E+02  1.4267E+00   1.4541E+02  0.000E+00  0.000E+00  0.000E+00  1.02969E+03  2.271E+00  5.522E+01  5.585E-01  8.516E-01
   1   13    6     8     1    1.7059E+02  8.6022E-01   1.6973E+02  0.000E+00  0.000E+00  0.000E+00  1.02483E+03  2.953E+00  4.282E+01  4.364E-01  6.571E-01
   1   13    5     8     2    1.6973E+02  1.0535E-01   1.6962E+02  0.000E+00  0.000E+00  0.000E+00  1.01858E+03  2.950E+00  4.278E+01  4.359E-01  8.056E-02
   1   13    4     8     3    1.6962E+02 -2.8707E+00   1.7249E+02  0.000E+00  0.000E+00  0.000E+00  1.01233E+03  2.959E+00  4.291E+01  4.372E+00 -2.189E-01
   1   13    3     8     4    1.7249E+02 -3.9820E+00   1.7647E+02  0.000E+00  0.000E+00  0.000E+00  1.00611E+03  2.981E+00  4.323E+01  4.405E+00 -3.013E-01
   1   13    2     8     5    1.7647E+02 -2.9039E+00   1.7938E+02  0.000E+00  0.000E+00  0.000E+00  9.99878E+02  3.003E+00  4.354E+01  4.437E+00 -2.181E-01
   1   13    1     8     6    1.7938E+02 -2.1917E+00   1.8157E+02  0.000E+00  0.000E+00  0.000E+00  9.94894E+02  3.019E+00  4.378E+01  2.677E+00 -2.729E-01
   1    8    6     9     1    0.0000E+00  0.0000E+00   0.0000E+00  0.000E+00  0.000E+00  0.000E+00  1.07875E+03  0.000E+00  4.000E+00  0.000E+00  1.000E+00
   1    8    5     9     2    0.0000E+00  0.0000E+00   0.0000E+00  0.000E+00  0.000E+00  0.000E+00  1.07825E+03  0.000E+00  4.000E+00  0.000E+00  1.000E+00



 UBDSV3 SAVING "           GW ET" ON UNIT  61 AT TIME STEP 9, STRESS PERIOD 5
 UBDSV3 SAVING "    UZF RECHARGE" ON UNIT  61 AT TIME STEP 9, STRESS PERIOD 5
 UBDSV3 SAVING " SURFACE LEAKAGE" ON UNIT  61 AT TIME STEP 9, STRESS PERIOD 5
 UBDSV3 SAVING "       HORT+DUNN" ON UNIT  61 AT TIME STEP 9, STRESS PERIOD 5
 UBDSV3 SAVING "  STORAGE CHANGE" ON UNIT  61 AT TIME STEP 9, STRESS PERIOD 5


UNSATURATED ZONE PACKAGE VOLUMETRIC BUDGET FOR  TIME STEP     9 STRESS PERIOD    5
  ------------------------------------------------------------------------------



     CUMULATIVE VOLUMES      L**3       RATES FOR THIS TIME STEP      L**3/T
     ------------------                 ------------------------

           IN:                                      IN:
           ---                                      ---
        INFILTRATION =    10363804.9483          INFILTRATION =           4.5675

          OUT:                                     OUT:
          ----                                     ----
              UZF ET =    10206722.3501                UZF ET =           4.5675
        UZF RECHARGE =       73224.0000          UZF RECHARGE =       0.0000E+00

            IN - OUT =       83858.5982              IN - OUT =       0.0000E+00

          STORAGE:                                 STORAGE:
          --------                                 --------
      STORAGE CHANGE =       83858.6509        STORAGE CHANGE =       0.0000E+00

 PERCENT DISCREPANCY IS DIFFERENCE BETWEEN IN-OUT MINUS CHANGE IN STORAGE
 DIVIDED BY THE AVERAGE OF IN AND OUT TIMES 100

 PERCENT DISCREPANCY =           0.00     PERCENT DISCREPANCY =           0.00






 

            AG WELLS      PERIOD    5   STEP   9
 AG WELL      1   LAYER   1   ROW     6   COL     4   RATE   -0.620000    
 AG WELL      2   LAYER   1   ROW     6   COL     5   RATE   -0.620000    
 AG WELL      3   LAYER   1   ROW     7   COL     4   RATE   -0.620000    
 AG WELL      4   LAYER   1   ROW     7   COL     5   RATE   -0.620000    
 AG WELL      5   LAYER   1   ROW     8   COL     4   RATE   -0.620000    
 AG WELL      6   LAYER   1   ROW     8   COL     5   RATE   -0.620000    
 
 

   DIVERSION SEGMENTS     PERIOD    5   STEP   9
 SEGMENT      9   RATE     0.00000    
 
 

        SW IRRIGATION     PERIOD    5   STEP   9
 SEGMENT      9   ROW     6   COL     4   RATE     0.00000    
 SEGMENT      9   ROW     6   COL     5   RATE     0.00000    
 SEGMENT      9   ROW     7   COL     4   RATE     0.00000    
 SEGMENT      9   ROW     7   COL     5   RATE     0.00000    
 SEGMENT      9   ROW     8   COL     4   RATE     0.00000    
 SEGMENT      9   ROW     8   COL     5   RATE     0.00000    
 
 

        GW IRRIGATION     PERIOD    5   STEP   9
 AG WELL      1   ROW     6   COL     4   RATE    0.620000    
 AG WELL      2   ROW     6   COL     5   RATE    0.620000    
 AG WELL      3   ROW     7   COL     4   RATE    0.620000    
 AG WELL      4   ROW     7   COL     5   RATE    0.620000    
 AG WELL      5   ROW     8   COL     4   RATE    0.620000    
 AG WELL      6   ROW     8   COL     5   RATE    0.620000    
 
1
  VOLUMETRIC BUDGET FOR AGRICULTURAL FIELDS AT  END OF TIME STEP    9, STRESS PERIOD   5
  ------------------------------------------------------------------------------

     CUMULATIVE VOLUMES      L**3       RATES FOR THIS TIME STEP      L**3/T
     ------------------                 ------------------------

           IN:                                      IN:
           ---                                      ---
               AG WELLS  =     2935129.0000                 AG WELLS  =           3.7200
      DIVERSION SEGMENTS =           0.0000        DIVERSION SEGMENTS =           0.0000
       IRRIGATION PONDS  =           0.0000         IRRIGATION PONDS  =           0.0000
           GW IRRIGATION =           0.0000             GW IRRIGATION =           0.0000
           SW IRRIGATION =           0.0000             SW IRRIGATION =           0.0000
        SYSTEM LOSSES GW =           0.0000          SYSTEM LOSSES GW =           0.0000
        SYSTEM LOSSES SW =           0.0000          SYSTEM LOSSES SW =           0.0000

                TOTAL IN =     2935129.0000                  TOTAL IN =           3.7200

          OUT:                                     OUT:
          ----                                     ----
               AG WELLS  =           0.0000                 AG WELLS  =           0.0000
      DIVERSION SEGMENTS =           0.0000        DIVERSION SEGMENTS =           0.0000
       IRRIGATION PONDS  =           0.0000         IRRIGATION PONDS  =           0.0000
           GW IRRIGATION =     2935129.0000             GW IRRIGATION =           3.7200
           SW IRRIGATION =           0.0000             SW IRRIGATION =           0.0000
        SYSTEM LOSSES GW =           0.0000          SYSTEM LOSSES GW =           0.0000
        SYSTEM LOSSES SW =           0.0000          SYSTEM LOSSES SW =           0.0000

               TOTAL OUT =     2935129.0000                 TOTAL OUT =           3.7200

                IN - OUT =           0.0000                  IN - OUT =           0.0000

     PERCENT DISCREPANCY =           0.00         PERCENT DISCREPANCY =           0.00



1
  VOLUMETRIC BUDGET FOR ENTIRE MODEL AT END OF TIME STEP    9, STRESS PERIOD   5
  ------------------------------------------------------------------------------

     CUMULATIVE VOLUMES      L**3       RATES FOR THIS TIME STEP      L**3/T
     ------------------                 ------------------------

           IN:                                      IN:
           ---                                      ---
             STORAGE     =     8941530.0000               STORAGE     =           5.2599
       CONSTANT HEAD     =           0.0000         CONSTANT HEAD     =           0.0000
     HEAD DEP BOUNDS     =     2504177.2500       HEAD DEP BOUNDS     =           0.2857
      STREAM LEAKAGE     =   104868296.0000        STREAM LEAKAGE     =          11.3791
        UZF RECHARGE     =       73223.9531          UZF RECHARGE     =           0.0000
               GW ET     =           0.0000                 GW ET     =           0.0000
     SURFACE LEAKAGE     =           0.0000       SURFACE LEAKAGE     =           0.0000
           AG WELLS      =           0.0000             AG WELLS      =           0.0000

                TOTAL IN =   116387224.0000                  TOTAL IN =          16.9248

          OUT:                                     OUT:
          ----                                     ----
             STORAGE     =    18869562.0000               STORAGE     =           0.9496
       CONSTANT HEAD     =           0.0000         CONSTANT HEAD     =           0.0000
     HEAD DEP BOUNDS     =     2548379.5000       HEAD DEP BOUNDS     =           0.2931
      STREAM LEAKAGE     =    91980792.0000        STREAM LEAKAGE     =          11.9483
        UZF RECHARGE     =           0.0000          UZF RECHARGE     =           0.0000
               GW ET     =       56220.4688                 GW ET     =       1.2576E-02
     SURFACE LEAKAGE     =           0.0000       SURFACE LEAKAGE     =           0.0000
           AG WELLS      =     2935129.0000             AG WELLS      =           3.7200

               TOTAL OUT =   116390088.0000                 TOTAL OUT =          16.9235

                IN - OUT =       -2864.0000                  IN - OUT =       1.2379E-03

     PERCENT DISCREPANCY =          -0.00         PERCENT DISCREPANCY =           0.01






         TIME SUMMARY AT END OF TIME STEP    9 IN STRESS PERIOD    5
                    SECONDS     MINUTES      HOURS       DAYS        YEARS
                    -----------------------------------------------------------
   TIME STEP LENGTH  87667.      1461.1      24.352      1.0147     2.77799E-03
 STRESS PERIOD TIME 7.89000E+05  13150.      219.17      9.1319     2.50019E-02
         TOTAL TIME 8.76540E+06 1.46090E+05  2434.8      101.45     0.27776    
1
 
 SOLVING FOR HEAD 
                                                   Max.-Head-Change                         Max.-Flux-Residual
  Residual-Control   Outer-Iter.   Inner-Iter.     Column Row Layer    Maximum-Head-Change  Column Row Layer    Maximum-Flux-Residual          L2-NORM 
          0                 1           2             4    7     1      -0.1101104984E-01       4    7    1        -0.5769114188E+00      0.1422351497E+01
          0                 2           2             4    7     1       0.1071073247E-02       4    7    1         0.5769103539E-01      0.1416461279E+00
          0                 3           1             4    7     1      -0.7293613443E-04       4    7    1        -0.4038375233E-02      0.9861437951E-02

    ------------------------------------------------
       NWT REQUIRED            3 OUTER ITERATIONS 
       AND A TOTAL OF          5 INNER ITERATIONS.
    ------------------------------------------------

 OUTPUT CONTROL FOR STRESS PERIOD    5   TIME STEP   10
    PRINT BUDGET
    SAVE BUDGET
 UBDSV1 SAVING "         STORAGE" ON UNIT 102 AT TIME STEP 10, STRESS PERIOD 5
 UBDSV2 SAVING "   CONSTANT HEAD" ON UNIT 102 AT TIME STEP 10, STRESS PERIOD 5
 UBDSV1 SAVING "FLOW RIGHT FACE " ON UNIT 102 AT TIME STEP 10, STRESS PERIOD 5
 UBDSV1 SAVING "FLOW FRONT FACE " ON UNIT 102 AT TIME STEP 10, STRESS PERIOD 5

  HEAD DEP BOUNDS   PERIOD    5   STEP    10
 BOUNDARY      1   LAYER   1   ROW    13   COL     1   RATE   -0.292948    
 BOUNDARY      2   LAYER   1   ROW    14   COL     9   RATE    0.285743    



 STREAM LISTING     PERIOD      5   STEP       10

 LAYER ROW COL. STREAM  RCH.  FLOW INTO     FLOW TO   FLOW OUT OF   OVRLND.     DIRECT     STREAM       STREAM     STREAM     STREAM   STREAMBED  STREAMBED
                SEG.NO.  NO.  STRM. RCH.    AQUIFER    STRM. RCH.    RUNOFF     PRECIP       ET          HEAD       DEPTH      WIDTH   CONDCTNC.   GRADIENT

   1    1    1     1     1    2.1000E+01  2.2592E-01   2.0774E+01  0.000E+00  0.000E+00  0.000E+00  1.09416E+03  1.115E+00  1.220E+01  5.490E-02  1.372E+00
   1    2    2     1     2    2.0774E+01  3.4916E-01   2.0425E+01  0.000E+00  0.000E+00  0.000E+00  1.08917E+03  1.110E+00  1.214E+01  8.495E-02  1.370E+00
   1    3    3     1     3    2.0425E+01  2.9709E-01   2.0128E+01  0.000E+00  0.000E+00  0.000E+00  1.08352E+03  1.105E+00  1.206E+01  7.238E-02  1.368E+00
   1    3    4     1     4    2.0128E+01  2.7299E-01   1.9855E+01  0.000E+00  0.000E+00  0.000E+00  1.07851E+03  1.100E+00  1.200E+01  6.659E-02  1.367E+00
   1    4    5     2     1    1.7855E+01  3.1056E-01   1.7544E+01  0.000E+00  0.000E+00  0.000E+00  1.07292E+03  9.816E-01  1.200E+01  7.800E-02  1.327E+00
   1    5    6     2     2    1.7544E+01  2.3834E-01   1.7306E+01  0.000E+00  0.000E+00  0.000E+00  1.06748E+03  9.724E-01  1.200E+01  6.000E-02  1.324E+00
   1    6    6     2     3    1.7306E+01  2.3787E-01   1.7068E+01  0.000E+00  0.000E+00  0.000E+00  1.06276E+03  9.644E-01  1.200E+01  6.000E-02  1.321E+00
   1    7    6     2     4    1.7068E+01  2.3738E-01   1.6831E+01  0.000E+00  0.000E+00  0.000E+00  1.05803E+03  9.564E-01  1.200E+01  6.000E-02  1.319E+00
   1    8    6     2     5    1.6831E+01  2.3690E-01   1.6594E+01  0.000E+00  0.000E+00  0.000E+00  1.05331E+03  9.483E-01  1.200E+01  6.000E-02  1.316E+00
   1    3    5     3     1    2.0000E+00  2.8252E-01   1.7175E+00  0.000E+00  0.000E+00  0.000E+00  1.07555E+03  1.909E+00  9.636E+00  7.227E-02  1.955E+00
   1    3    6     3     2    1.7175E+00  2.4905E-01   1.4684E+00  0.000E+00  0.000E+00  0.000E+00  1.07264E+03  1.727E+00  8.909E+00  6.682E-02  1.864E+00
   1    3    7     3     3    1.4684E+00  1.9718E-01   1.2712E+00  0.000E+00  0.000E+00  0.000E+00  1.06987E+03  1.555E+00  8.218E+00  5.547E-02  1.777E+00
   1    4    8     3     4    1.2712E+00  2.2567E-01   1.0456E+00  0.000E+00  0.000E+00  0.000E+00  1.06682E+03  1.364E+00  7.455E+00  6.709E-02  1.682E+00
   1    5    8     3     5    1.0456E+00  1.5790E-01   8.8768E-01  0.000E+00  0.000E+00  0.000E+00  1.06362E+03  1.164E+00  6.655E+00  4.991E-02  1.582E+00
   1    6    8     3     6    8.8768E-01  5.5980E-02   8.3170E-01  0.000E+00  0.000E+00  0.000E+00  1.06158E+03  1.036E+00  6.145E+00  1.844E-02  1.518E+00
   1    5   10     4     1    1.0000E+01  9.0919E-02   9.9091E+00  0.000E+00  0.000E+00  0.000E+00  1.07836E+03  6.368E-01  1.000E+01  2.500E-02  1.212E+00
   1    5    9     4     2    9.9091E+00  1.8158E-01   9.7275E+00  0.000E+00  0.000E+00  0.000E+00  1.07154E+03  6.315E-01  1.000E+01  5.000E-02  1.211E+00
   1    6    8     4     3    9.7275E+00  1.2689E-01   9.6006E+00  0.000E+00  0.000E+00  0.000E+00  1.06381E+03  6.256E-01  1.000E+01  3.500E-02  1.209E+00
   1    6    8     5     1    1.0432E+01  2.2686E-01   1.0205E+01  0.000E+00  0.000E+00  0.000E+00  1.05868E+03  6.790E-01  1.542E+01  6.166E-02  1.226E+00
   1    7    7     5     2    1.0205E+01  2.7894E-01   9.9265E+00  0.000E+00  0.000E+00  0.000E+00  1.05417E+03  6.732E-01  1.519E+01  7.594E-02  1.224E+00
   1    8    7     5     3    9.9265E+00  1.9221E-01   9.7343E+00  0.000E+00  0.000E+00  0.000E+00  1.04992E+03  6.676E-01  1.497E+01  5.241E-02  1.223E+00
   1    8    6     5     4    9.7343E+00  1.3577E-01   9.5985E+00  0.000E+00  0.000E+00  0.000E+00  1.04691E+03  6.637E-01  1.482E+01  3.706E-02  1.221E+00
   1    9    6     6     1    2.6192E+01  2.5512E-01   2.5937E+01  0.000E+00  0.000E+00  0.000E+00  1.04398E+03  1.252E+00  1.200E+01  6.000E-02  1.417E+00
   1   10    7     6     2    2.5937E+01  2.5468E-01   2.5683E+01  0.000E+00  0.000E+00  0.000E+00  1.03943E+03  1.245E+00  1.200E+01  6.000E-02  1.415E+00
   1   11    7     6     3    2.5683E+01  2.5424E-01   2.5428E+01  0.000E+00  0.000E+00  0.000E+00  1.03487E+03  1.237E+00  1.200E+01  6.000E-02  1.412E+00
   1   12    7     6     4    2.5428E+01  2.5379E-01   2.5175E+01  0.000E+00  0.000E+00  0.000E+00  1.03032E+03  1.230E+00  1.200E+01  6.000E-02  1.410E+00
   1   13    7     6     5    2.5175E+01 -6.7486E-05   2.5175E+01  0.000E+00  0.000E+00  0.000E+00  1.02714E+03  1.226E+00  1.200E+01  2.400E-01 -9.373E-05
   1   14    9     7     1    1.5000E+02  1.3356E+00   1.4866E+02  0.000E+00  0.000E+00  0.000E+00  1.03987E+03  2.288E+00  5.529E+01  5.593E-01  7.960E-01
   1   13    8     7     2    1.4866E+02  1.8257E+00   1.4684E+02  0.000E+00  0.000E+00  0.000E+00  1.03478E+03  2.279E+00  5.526E+01  6.148E-01  9.899E-01
   1   13    7     7     3    1.4684E+02  1.4266E+00   1.4541E+02  0.000E+00  0.000E+00  0.000E+00  1.02969E+03  2.271E+00  5.522E+01  5.585E-01  8.515E-01
   1   13    6     8     1    1.7059E+02  8.6061E-01   1.6973E+02  0.000E+00  0.000E+00  0.000E+00  1.02483E+03  2.953E+00  4.282E+01  4.364E-01  6.574E-01
   1   13    5     8     2    1.6973E+02  1.0578E-01   1.6962E+02  0.000E+00  0.000E+00  0.000E+00  1.01858E+03  2.950E+00  4.278E+01  4.359E-01  8.089E-02
   1   13    4     8     3    1.6962E+02 -2.8515E+00   1.7247E+02  0.000E+00  0.000E+00  0.000E+00  1.01233E+03  2.959E+00  4.291E+01  4.372E+00 -2.174E-01
   1   13    3     8     4    1.7247E+02 -3.9630E+00   1.7643E+02  0.000E+00  0.000E+00  0.000E+00  1.00611E+03  2.981E+00  4.322E+01  4.405E+00 -2.999E-01
   1   13    2     8     5    1.7643E+02 -2.8811E+00   1.7932E+02  0.000E+00  0.000E+00  0.000E+00  9.99878E+02  3.003E+00  4.354E+01  4.437E+00 -2.165E-01
   1   13    1     8     6    1.7932E+02 -2.1823E+00   1.8150E+02  0.000E+00  0.000E+00  0.000E+00  9.94894E+02  3.019E+00  4.377E+01  2.676E+00 -2.718E-01
   1    8    6     9     1    0.0000E+00  0.0000E+00   0.0000E+00  0.000E+00  0.000E+00  0.000E+00  1.07875E+03  0.000E+00  4.000E+00  0.000E+00  1.000E+00
   1    8    5     9     2    0.0000E+00  0.0000E+00   0.0000E+00  0.000E+00  0.000E+00  0.000E+00  1.07825E+03  0.000E+00  4.000E+00  0.000E+00  1.000E+00



 UBDSV3 SAVING "           GW ET" ON UNIT  61 AT TIME STEP 10, STRESS PERIOD 5
 UBDSV3 SAVING "    UZF RECHARGE" ON UNIT  61 AT TIME STEP 10, STRESS PERIOD 5
 UBDSV3 SAVING " SURFACE LEAKAGE" ON UNIT  61 AT TIME STEP 10, STRESS PERIOD 5
 UBDSV3 SAVING "       HORT+DUNN" ON UNIT  61 AT TIME STEP 10, STRESS PERIOD 5
 UBDSV3 SAVING "  STORAGE CHANGE" ON UNIT  61 AT TIME STEP 10, STRESS PERIOD 5


UNSATURATED ZONE PACKAGE VOLUMETRIC BUDGET FOR  TIME STEP    10 STRESS PERIOD    5
  ------------------------------------------------------------------------------



     CUMULATIVE VOLUMES      L**3       RATES FOR THIS TIME STEP      L**3/T
     ------------------                 ------------------------

           IN:                                      IN:
           ---                                      ---
        INFILTRATION =    10764222.4286          INFILTRATION =           4.5675

          OUT:                                     OUT:
          ----                                     ----
              UZF ET =    10607139.8304                UZF ET =           4.5675
        UZF RECHARGE =       73224.0000          UZF RECHARGE =       0.0000E+00

            IN - OUT =       83858.5982              IN - OUT =       0.0000E+00

          STORAGE:                                 STORAGE:
          --------                                 --------
      STORAGE CHANGE =       83858.6509        STORAGE CHANGE =       2.0749E-17

 PERCENT DISCREPANCY IS DIFFERENCE BETWEEN IN-OUT MINUS CHANGE IN STORAGE
 DIVIDED BY THE AVERAGE OF IN AND OUT TIMES 100

 PERCENT DISCREPANCY =           0.00     PERCENT DISCREPANCY =           0.00






 

            AG WELLS      PERIOD    5   STEP  10
 AG WELL      1   LAYER   1   ROW     6   COL     4   RATE   -0.620000    
 AG WELL      2   LAYER   1   ROW     6   COL     5   RATE   -0.620000    
 AG WELL      3   LAYER   1   ROW     7   COL     4   RATE   -0.620000    
 AG WELL      4   LAYER   1   ROW     7   COL     5   RATE   -0.620000    
 AG WELL      5   LAYER   1   ROW     8   COL     4   RATE   -0.620000    
 AG WELL      6   LAYER   1   ROW     8   COL     5   RATE   -0.620000    
 
 

   DIVERSION SEGMENTS     PERIOD    5   STEP  10
 SEGMENT      9   RATE     0.00000    
 
 

        SW IRRIGATION     PERIOD    5   STEP  10
 SEGMENT      9   ROW     6   COL     4   RATE     0.00000    
 SEGMENT      9   ROW     6   COL     5   RATE     0.00000    
 SEGMENT      9   ROW     7   COL     4   RATE     0.00000    
 SEGMENT      9   ROW     7   COL     5   RATE     0.00000    
 SEGMENT      9   ROW     8   COL     4   RATE     0.00000    
 SEGMENT      9   ROW     8   COL     5   RATE     0.00000    
 
 

        GW IRRIGATION     PERIOD    5   STEP  10
 AG WELL      1   ROW     6   COL     4   RATE    0.620000    
 AG WELL      2   ROW     6   COL     5   RATE    0.620000    
 AG WELL      3   ROW     7   COL     4   RATE    0.620000    
 AG WELL      4   ROW     7   COL     5   RATE    0.620000    
 AG WELL      5   ROW     8   COL     4   RATE    0.620000    
 AG WELL      6   ROW     8   COL     5   RATE    0.620000    
 
1
  VOLUMETRIC BUDGET FOR AGRICULTURAL FIELDS AT  END OF TIME STEP   10, STRESS PERIOD   5
  ------------------------------------------------------------------------------

     CUMULATIVE VOLUMES      L**3       RATES FOR THIS TIME STEP      L**3/T
     ------------------                 ------------------------

           IN:                                      IN:
           ---                                      ---
               AG WELLS  =     3261249.0000                 AG WELLS  =           3.7200
      DIVERSION SEGMENTS =           0.0000        DIVERSION SEGMENTS =           0.0000
       IRRIGATION PONDS  =           0.0000         IRRIGATION PONDS  =           0.0000
           GW IRRIGATION =           0.0000             GW IRRIGATION =           0.0000
           SW IRRIGATION =           0.0000             SW IRRIGATION =           0.0000
        SYSTEM LOSSES GW =           0.0000          SYSTEM LOSSES GW =           0.0000
        SYSTEM LOSSES SW =           0.0000          SYSTEM LOSSES SW =           0.0000

                TOTAL IN =     3261249.0000                  TOTAL IN =           3.7200

          OUT:                                     OUT:
          ----                                     ----
               AG WELLS  =           0.0000                 AG WELLS  =           0.0000
      DIVERSION SEGMENTS =           0.0000        DIVERSION SEGMENTS =           0.0000
       IRRIGATION PONDS  =           0.0000         IRRIGATION PONDS  =           0.0000
           GW IRRIGATION =     3261249.0000             GW IRRIGATION =           3.7200
           SW IRRIGATION =           0.0000             SW IRRIGATION =           0.0000
        SYSTEM LOSSES GW =           0.0000          SYSTEM LOSSES GW =           0.0000
        SYSTEM LOSSES SW =           0.0000          SYSTEM LOSSES SW =           0.0000

               TOTAL OUT =     3261249.0000                 TOTAL OUT =           3.7200

                IN - OUT =           0.0000                  IN - OUT =           0.0000

     PERCENT DISCREPANCY =           0.00         PERCENT DISCREPANCY =           0.00



1
  VOLUMETRIC BUDGET FOR ENTIRE MODEL AT END OF TIME STEP   10, STRESS PERIOD   5
  ------------------------------------------------------------------------------

     CUMULATIVE VOLUMES      L**3       RATES FOR THIS TIME STEP      L**3/T
     ------------------                 ------------------------

           IN:                                      IN:
           ---                                      ---
             STORAGE     =     9393958.0000               STORAGE     =           5.1608
       CONSTANT HEAD     =           0.0000         CONSTANT HEAD     =           0.0000
     HEAD DEP BOUNDS     =     2529227.5000       HEAD DEP BOUNDS     =           0.2857
      STREAM LEAKAGE     =   105865920.0000        STREAM LEAKAGE     =          11.3797
        UZF RECHARGE     =       73223.9531          UZF RECHARGE     =           0.0000
               GW ET     =           0.0000                 GW ET     =           0.0000
     SURFACE LEAKAGE     =           0.0000       SURFACE LEAKAGE     =           0.0000
           AG WELLS      =           0.0000             AG WELLS      =           0.0000

                TOTAL IN =   117862328.0000                  TOTAL IN =          16.8262

          OUT:                                     OUT:
          ----                                     ----
             STORAGE     =    18950824.0000               STORAGE     =           0.9270
       CONSTANT HEAD     =           0.0000         CONSTANT HEAD     =           0.0000
     HEAD DEP BOUNDS     =     2574061.2500       HEAD DEP BOUNDS     =           0.2929
      STREAM LEAKAGE     =    93022096.0000        STREAM LEAKAGE     =          11.8780
        UZF RECHARGE     =           0.0000          UZF RECHARGE     =           0.0000
               GW ET     =       56840.5703                 GW ET     =       7.0734E-03
     SURFACE LEAKAGE     =           0.0000       SURFACE LEAKAGE     =           0.0000
           AG WELLS      =     3261249.0000             AG WELLS      =           3.7200

               TOTAL OUT =   117865072.0000                 TOTAL OUT =          16.8250

                IN - OUT =       -2744.0000                  IN - OUT =       1.2169E-03

     PERCENT DISCREPANCY =          -0.00         PERCENT DISCREPANCY =           0.01






         TIME SUMMARY AT END OF TIME STEP   10 IN STRESS PERIOD    5
                    SECONDS     MINUTES      HOURS       DAYS        YEARS
                    -----------------------------------------------------------
   TIME STEP LENGTH  87667.      1461.1      24.352      1.0147     2.77799E-03
 STRESS PERIOD TIME 8.76667E+05  14611.      243.52      10.147     2.77799E-02
         TOTAL TIME 8.85306E+06 1.47551E+05  2459.2      102.47     0.28054    
1
 
 SOLVING FOR HEAD 
                                                   Max.-Head-Change                         Max.-Flux-Residual
  Residual-Control   Outer-Iter.   Inner-Iter.     Column Row Layer    Maximum-Head-Change  Column Row Layer    Maximum-Flux-Residual          L2-NORM 
          0                 1           2             4    7     1      -0.1091732277E-01       4    7    1        -0.5721439895E+00      0.1388242680E+01
          0                 2           2             4    7     1       0.1061956124E-02       4    7    1         0.5721428991E-01      0.1383125034E+00
          0                 3           1             4    7     1      -0.7231529263E-04       4    7    1        -0.4005003045E-02      0.9634704074E-02

    ------------------------------------------------
       NWT REQUIRED            3 OUTER ITERATIONS 
       AND A TOTAL OF          5 INNER ITERATIONS.
    ------------------------------------------------

 NO OUTPUT CONTROL FOR STRESS PERIOD    5   TIME STEP   11
 
 SOLVING FOR HEAD 
                                                   Max.-Head-Change                         Max.-Flux-Residual
  Residual-Control   Outer-Iter.   Inner-Iter.     Column Row Layer    Maximum-Head-Change  Column Row Layer    Maximum-Flux-Residual          L2-NORM 
          0                 1           2             4    7     1      -0.1082153143E-01       4    7    1        -0.5672546057E+00      0.1357044774E+01
          0                 2           2             4    7     1       0.1052638211E-02       4    7    1         0.5672534948E-01      0.1348216932E+00
          0                 3           1             4    7     1      -0.7168077774E-04       4    7    1        -0.3970777220E-02      0.9398706692E-02

    ------------------------------------------------
       NWT REQUIRED            3 OUTER ITERATIONS 
       AND A TOTAL OF          5 INNER ITERATIONS.
    ------------------------------------------------

 NO OUTPUT CONTROL FOR STRESS PERIOD    5   TIME STEP   12
 
 SOLVING FOR HEAD 
                                                   Max.-Head-Change                         Max.-Flux-Residual
  Residual-Control   Outer-Iter.   Inner-Iter.     Column Row Layer    Maximum-Head-Change  Column Row Layer    Maximum-Flux-Residual          L2-NORM 
          0                 1           2             4    7     1      -0.1072421729E-01       4    7    1        -0.5622730201E+00      0.1328756142E+01
          0                 2           2             4    7     1       0.1043172179E-02       4    7    1         0.5622718931E-01      0.1324857764E+00
          0                 3           1             4    7     1      -0.7103617607E-04       4    7    1        -0.3935906014E-02      0.9238020466E-02

    ------------------------------------------------
       NWT REQUIRED            3 OUTER ITERATIONS 
       AND A TOTAL OF          5 INNER ITERATIONS.
    ------------------------------------------------

 NO OUTPUT CONTROL FOR STRESS PERIOD    5   TIME STEP   13
 
 SOLVING FOR HEAD 
                                                   Max.-Head-Change                         Max.-Flux-Residual
  Residual-Control   Outer-Iter.   Inner-Iter.     Column Row Layer    Maximum-Head-Change  Column Row Layer    Maximum-Flux-Residual          L2-NORM 
          0                 1           2             4    7     1      -0.1062588315E-01       4    7    1        -0.5572273061E+00      0.1302867352E+01
          0                 2           2             4    7     1       0.1033606933E-02       4    7    1         0.5572261665E-01      0.1299455927E+00
          0                 3           1             4    7     1      -0.7038481904E-04       4    7    1        -0.3900585943E-02      0.9065477169E-02

    ------------------------------------------------
       NWT REQUIRED            3 OUTER ITERATIONS 
       AND A TOTAL OF          5 INNER ITERATIONS.
    ------------------------------------------------

 NO OUTPUT CONTROL FOR STRESS PERIOD    5   TIME STEP   14
 
 SOLVING FOR HEAD 
                                                   Max.-Head-Change                         Max.-Flux-Residual
  Residual-Control   Outer-Iter.   Inner-Iter.     Column Row Layer    Maximum-Head-Change  Column Row Layer    Maximum-Flux-Residual          L2-NORM 
          0                 1           2             4    7     1      -0.1052647658E-01       4    7    1        -0.5521138858E+00      0.1278817182E+01
          0                 2           2             4    7     1       0.1023937373E-02       4    7    1         0.5521127373E-01      0.1275832395E+00
          0                 3           1             4    7     1      -0.6972635802E-04       4    7    1        -0.3864791933E-02      0.8903298763E-02

    ------------------------------------------------
       NWT REQUIRED            3 OUTER ITERATIONS 
       AND A TOTAL OF          5 INNER ITERATIONS.
    ------------------------------------------------

 NO OUTPUT CONTROL FOR STRESS PERIOD    5   TIME STEP   15
 
 SOLVING FOR HEAD 
                                                   Max.-Head-Change                         Max.-Flux-Residual
  Residual-Control   Outer-Iter.   Inner-Iter.     Column Row Layer    Maximum-Head-Change  Column Row Layer    Maximum-Flux-Residual          L2-NORM 
          0                 1           2             4    7     1      -0.1042646727E-01       4    7    1        -0.5469596873E+00      0.1256390218E+01
          0                 2           2             4    7     1       0.1014209187E-02       4    7    1         0.5469585326E-01      0.1253782113E+00
          0                 3           1             4    7     1      -0.6906390457E-04       4    7    1        -0.3828712484E-02      0.8752391497E-02

    ------------------------------------------------
       NWT REQUIRED            3 OUTER ITERATIONS 
       AND A TOTAL OF          5 INNER ITERATIONS.
    ------------------------------------------------

 NO OUTPUT CONTROL FOR STRESS PERIOD    5   TIME STEP   16
 
 SOLVING FOR HEAD 
                                                   Max.-Head-Change                         Max.-Flux-Residual
  Residual-Control   Outer-Iter.   Inner-Iter.     Column Row Layer    Maximum-Head-Change  Column Row Layer    Maximum-Flux-Residual          L2-NORM 
          0                 1           2             4    7     1      -0.1032575688E-01       4    7    1        -0.5417594177E+00      0.1235407690E+01
          0                 2           2             4    7     1       0.1004412810E-02       4    7    1         0.5417582601E-01      0.1233118565E+00
          0                 3           1             4    7     1      -0.6839680782E-04       4    7    1        -0.3792310564E-02      0.8610512401E-02

    ------------------------------------------------
       NWT REQUIRED            3 OUTER ITERATIONS 
       AND A TOTAL OF          5 INNER ITERATIONS.
    ------------------------------------------------

 NO OUTPUT CONTROL FOR STRESS PERIOD    5   TIME STEP   17
 
 SOLVING FOR HEAD 
                                                   Max.-Head-Change                         Max.-Flux-Residual
  Residual-Control   Outer-Iter.   Inner-Iter.     Column Row Layer    Maximum-Head-Change  Column Row Layer    Maximum-Flux-Residual          L2-NORM 
          0                 1           2             4    7     1      -0.1022452940E-01       4    7    1        -0.5365228015E+00      0.1215747477E+01
          0                 2           2             4    7     1       0.9945661381E-03       4    7    1         0.5365216434E-01      0.1213746314E+00
          0                 3           1             4    7     1      -0.6772628569E-04       4    7    1        -0.3755654224E-02      0.8478274074E-02

    ------------------------------------------------
       NWT REQUIRED            3 OUTER ITERATIONS 
       AND A TOTAL OF          5 INNER ITERATIONS.
    ------------------------------------------------

 NO OUTPUT CONTROL FOR STRESS PERIOD    5   TIME STEP   18
 
 SOLVING FOR HEAD 
                                                   Max.-Head-Change                         Max.-Flux-Residual
  Residual-Control   Outer-Iter.   Inner-Iter.     Column Row Layer    Maximum-Head-Change  Column Row Layer    Maximum-Flux-Residual          L2-NORM 
          0                 1           2             4    7     1      -0.1012294221E-01       4    7    1        -0.5312593777E+00      0.1197235694E+01
          0                 2           2             4    7     1       0.9846844792E-03       4    7    1         0.5312582215E-01      0.1195487360E+00
          0                 3           1             4    7     1      -0.6705338145E-04       4    7    1        -0.3718810257E-02      0.8352314100E-02

    ------------------------------------------------
       NWT REQUIRED            3 OUTER ITERATIONS 
       AND A TOTAL OF          5 INNER ITERATIONS.
    ------------------------------------------------

 NO OUTPUT CONTROL FOR STRESS PERIOD    5   TIME STEP   19
 
 SOLVING FOR HEAD 
                                                   Max.-Head-Change                         Max.-Flux-Residual
  Residual-Control   Outer-Iter.   Inner-Iter.     Column Row Layer    Maximum-Head-Change  Column Row Layer    Maximum-Flux-Residual          L2-NORM 
          0                 1           2             4    7     1      -0.1002114915E-01       4    7    1        -0.5259773061E+00      0.1179779829E+01
          0                 2           2             4    7     1       0.9747827978E-03       4    7    1         0.5259761539E-01      0.1178246545E+00
          0                 3           1             4    7     1      -0.6637911350E-04       4    7    1        -0.3681835753E-02      0.8233653106E-02

    ------------------------------------------------
       NWT REQUIRED            3 OUTER ITERATIONS 
       AND A TOTAL OF          5 INNER ITERATIONS.
    ------------------------------------------------

 NO OUTPUT CONTROL FOR STRESS PERIOD    5   TIME STEP   20
 
 SOLVING FOR HEAD 
                                                   Max.-Head-Change                         Max.-Flux-Residual
  Residual-Control   Outer-Iter.   Inner-Iter.     Column Row Layer    Maximum-Head-Change  Column Row Layer    Maximum-Flux-Residual          L2-NORM 
          0                 1           2             4    7     1      -0.9919563739E-02       4    7    1        -0.5206993844E+00      0.1163286223E+01
          0                 2           2             4    7     1       0.9649013182E-03       4    7    1         0.5206982381E-01      0.1161947850E+00
          0                 3           1             4    7     1      -0.6570622133E-04       4    7    1        -0.3644890323E-02      0.8121396888E-02

    ------------------------------------------------
       NWT REQUIRED            3 OUTER ITERATIONS 
       AND A TOTAL OF          5 INNER ITERATIONS.
    ------------------------------------------------

 NO OUTPUT CONTROL FOR STRESS PERIOD    5   TIME STEP   21
 
 SOLVING FOR HEAD 
                                                   Max.-Head-Change                         Max.-Flux-Residual
  Residual-Control   Outer-Iter.   Inner-Iter.     Column Row Layer    Maximum-Head-Change  Column Row Layer    Maximum-Flux-Residual          L2-NORM 
          0                 1           2             4    7     1      -0.9818019056E-02       4    7    1        -0.5154174107E+00      0.1147632221E+01
          0                 2           2             4    7     1       0.9550238023E-03       4    7    1         0.5154162719E-01      0.1146456760E+00
          0                 3           1             4    7     1      -0.6503359897E-04       4    7    1        -0.3607916530E-02      0.8014213937E-02

    ------------------------------------------------
       NWT REQUIRED            3 OUTER ITERATIONS 
       AND A TOTAL OF          5 INNER ITERATIONS.
    ------------------------------------------------

 NO OUTPUT CONTROL FOR STRESS PERIOD    5   TIME STEP   22
 
 SOLVING FOR HEAD 
                                                   Max.-Head-Change                         Max.-Flux-Residual
  Residual-Control   Outer-Iter.   Inner-Iter.     Column Row Layer    Maximum-Head-Change  Column Row Layer    Maximum-Flux-Residual          L2-NORM 
          0                 1           2             4    7     1      -0.9716634038E-02       4    7    1        -0.5101375510E+00      0.1132756260E+01
          0                 2           2             4    7     1       0.9451618195E-03       4    7    1         0.5101364210E-01      0.1131728575E+00
          0                 3           1             4    7     1      -0.6436203501E-04       4    7    1        -0.3570957578E-02      0.7912036956E-02

    ------------------------------------------------
       NWT REQUIRED            3 OUTER ITERATIONS 
       AND A TOTAL OF          5 INNER ITERATIONS.
    ------------------------------------------------

 NO OUTPUT CONTROL FOR STRESS PERIOD    5   TIME STEP   23
 
 SOLVING FOR HEAD 
                                                   Max.-Head-Change                         Max.-Flux-Residual
  Residual-Control   Outer-Iter.   Inner-Iter.     Column Row Layer    Maximum-Head-Change  Column Row Layer    Maximum-Flux-Residual          L2-NORM 
          0                 1           2             4    7     1      -0.9615519643E-02       4    7    1        -0.5048659724E+00      0.1118584088E+01
          0                 2           2             4    7     1       0.9353261628E-03       4    7    1         0.5048648529E-01      0.1117683282E+00
          0                 3           1             4    7     1      -0.6369226244E-04       4    7    1        -0.3534056545E-02      0.7815621307E-02

    ------------------------------------------------
       NWT REQUIRED            3 OUTER ITERATIONS 
       AND A TOTAL OF          5 INNER ITERATIONS.
    ------------------------------------------------

 NO OUTPUT CONTROL FOR STRESS PERIOD    5   TIME STEP   24
 
 SOLVING FOR HEAD 
                                                   Max.-Head-Change                         Max.-Flux-Residual
  Residual-Control   Outer-Iter.   Inner-Iter.     Column Row Layer    Maximum-Head-Change  Column Row Layer    Maximum-Flux-Residual          L2-NORM 
          0                 1           2             4    7     1      -0.9515049396E-02       4    7    1        -0.4996232474E+00      0.1105066344E+01
          0                 2           2             4    7     1       0.9255113485E-03       4    7    1         0.4996221394E-01      0.1103645892E+00
          0                 3           1             4    7     1      -0.6302391013E-04       4    7    1        -0.3497357539E-02      0.7718393399E-02

    ------------------------------------------------
       NWT REQUIRED            3 OUTER ITERATIONS 
       AND A TOTAL OF          5 INNER ITERATIONS.
    ------------------------------------------------

 NO OUTPUT CONTROL FOR STRESS PERIOD    5   TIME STEP   25
 
 SOLVING FOR HEAD 
                                                   Max.-Head-Change                         Max.-Flux-Residual
  Residual-Control   Outer-Iter.   Inner-Iter.     Column Row Layer    Maximum-Head-Change  Column Row Layer    Maximum-Flux-Residual          L2-NORM 
          0                 1           2             4    7     1      -0.9415146781E-02       4    7    1        -0.4944013257E+00      0.1092181613E+01
          0                 2           2             4    7     1       0.9158353919E-03       4    7    1         0.4944002312E-01      0.1091488205E+00
          0                 3           1             4    7     1      -0.6236501293E-04       4    7    1        -0.3460804148E-02      0.7633950778E-02

    ------------------------------------------------
       NWT REQUIRED            3 OUTER ITERATIONS 
       AND A TOTAL OF          5 INNER ITERATIONS.
    ------------------------------------------------

 NO OUTPUT CONTROL FOR STRESS PERIOD    5   TIME STEP   26
 
 SOLVING FOR HEAD 
                                                   Max.-Head-Change                         Max.-Flux-Residual
  Residual-Control   Outer-Iter.   Inner-Iter.     Column Row Layer    Maximum-Head-Change  Column Row Layer    Maximum-Flux-Residual          L2-NORM 
          0                 1           2             4    7     1      -0.9315761291E-02       4    7    1        -0.4892043931E+00      0.1079841509E+01
          0                 2           2             4    7     1       0.9061679159E-03       4    7    1         0.4892033126E-01      0.1079235023E+00
          0                 3           1             4    7     1      -0.6170669368E-04       4    7    1        -0.3424425710E-02      0.7549052103E-02

    ------------------------------------------------
       NWT REQUIRED            3 OUTER ITERATIONS 
       AND A TOTAL OF          5 INNER ITERATIONS.
    ------------------------------------------------

 NO OUTPUT CONTROL FOR STRESS PERIOD    5   TIME STEP   27
 
 SOLVING FOR HEAD 
                                                   Max.-Head-Change                         Max.-Flux-Residual
  Residual-Control   Outer-Iter.   Inner-Iter.     Column Row Layer    Maximum-Head-Change  Column Row Layer    Maximum-Flux-Residual          L2-NORM 
          0                 1           2             4    7     1      -0.9217004505E-02       4    7    1        -0.4840364971E+00      0.1067991438E+01
          0                 2           2             4    7     1       0.8965615952E-03       4    7    1         0.4840354308E-01      0.1067425212E+00
          0                 3           1             4    7     1      -0.6105253870E-04       4    7    1        -0.3388250493E-02      0.7464125509E-02

    ------------------------------------------------
       NWT REQUIRED            3 OUTER ITERATIONS 
       AND A TOTAL OF          5 INNER ITERATIONS.
    ------------------------------------------------

 NO OUTPUT CONTROL FOR STRESS PERIOD    5   TIME STEP   28
 
 SOLVING FOR HEAD 
                                                   Max.-Head-Change                         Max.-Flux-Residual
  Residual-Control   Outer-Iter.   Inner-Iter.     Column Row Layer    Maximum-Head-Change  Column Row Layer    Maximum-Flux-Residual          L2-NORM 
          0                 1           2             4    7     1      -0.9119124427E-02       4    7    1        -0.4789160193E+00      0.1105391338E+01
          0                 2           2             7   13     1      -0.1270637016E-02       7   13    1        -0.7046510556E-01      0.1301950262E+00
          0                 3           1             7   13     1       0.8650142747E-04       7   13    1         0.4931203239E-02      0.9094804044E-02

    ------------------------------------------------
       NWT REQUIRED            3 OUTER ITERATIONS 
       AND A TOTAL OF          5 INNER ITERATIONS.
    ------------------------------------------------

 NO OUTPUT CONTROL FOR STRESS PERIOD    5   TIME STEP   29
 
 SOLVING FOR HEAD 
                                                   Max.-Head-Change                         Max.-Flux-Residual
  Residual-Control   Outer-Iter.   Inner-Iter.     Column Row Layer    Maximum-Head-Change  Column Row Layer    Maximum-Flux-Residual          L2-NORM 
          0                 1           2             4   13     1       0.1922250112E-01       4   13    1         0.1109984758E+01      0.2239466154E+01
          0                 2           2             4   13     1      -0.1849720848E-02       4   13    1        -0.1098232128E+00      0.2189255883E+00
          0                 3           2             4   13     1       0.1240754510E-03       4   13    1         0.7574335215E-02      0.1486008777E-01
          0                 4           1             4   13     1      -0.4809599760E-05       4   13    1        -0.3019032247E-03      0.5782254536E-03

    ------------------------------------------------
       NWT REQUIRED            4 OUTER ITERATIONS 
       AND A TOTAL OF          7 INNER ITERATIONS.
    ------------------------------------------------

 NO OUTPUT CONTROL FOR STRESS PERIOD    5   TIME STEP   30



 STREAM LISTING     PERIOD      5   STEP       30

 LAYER ROW COL. STREAM  RCH.  FLOW INTO     FLOW TO   FLOW OUT OF   OVRLND.     DIRECT     STREAM       STREAM     STREAM     STREAM   STREAMBED  STREAMBED
                SEG.NO.  NO.  STRM. RCH.    AQUIFER    STRM. RCH.    RUNOFF     PRECIP       ET          HEAD       DEPTH      WIDTH   CONDCTNC.   GRADIENT

   1    1    1     1     1    7.4250E+01  4.1989E-01   7.3830E+01  0.000E+00  0.000E+00  0.000E+00  1.09474E+03  1.690E+00  1.990E+01  8.954E-02  1.563E+00
   1    2    2     1     2    7.3830E+01  6.5045E-01   7.3180E+01  0.000E+00  0.000E+00  0.000E+00  1.08974E+03  1.684E+00  1.984E+01  1.389E-01  1.561E+00
   1    3    3     1     3    7.3180E+01  5.5490E-01   7.2625E+01  0.000E+00  0.000E+00  0.000E+00  1.08410E+03  1.677E+00  1.977E+01  1.186E-01  1.559E+00
   1    3    4     1     4    7.2625E+01  5.1113E-01   7.2114E+01  0.000E+00  0.000E+00  0.000E+00  1.07908E+03  1.671E+00  1.972E+01  1.094E-01  1.557E+00
   1    4    5     2     1    7.0114E+01  4.0857E-01   6.9705E+01  0.000E+00  0.000E+00  0.000E+00  1.07417E+03  2.238E+00  1.200E+01  7.800E-02  1.746E+00
   1    5    6     2     2    6.9705E+01  3.1387E-01   6.9391E+01  0.000E+00  0.000E+00  0.000E+00  1.06874E+03  2.231E+00  1.200E+01  6.000E-02  1.744E+00
   1    6    6     2     3    6.9391E+01  3.1350E-01   6.9078E+01  0.000E+00  0.000E+00  0.000E+00  1.06402E+03  2.225E+00  1.200E+01  6.000E-02  1.742E+00
   1    7    6     2     4    6.9078E+01  3.1314E-01   6.8765E+01  0.000E+00  0.000E+00  0.000E+00  1.05929E+03  2.219E+00  1.200E+01  6.000E-02  1.740E+00
   1    8    6     2     5    6.8765E+01  3.1278E-01   6.8452E+01  0.000E+00  0.000E+00  0.000E+00  1.05457E+03  2.213E+00  1.200E+01  6.000E-02  1.738E+00
   1    3    5     3     1    2.0000E+00  2.8252E-01   1.7175E+00  0.000E+00  0.000E+00  0.000E+00  1.07555E+03  1.909E+00  9.636E+00  7.227E-02  1.955E+00
   1    3    6     3     2    1.7175E+00  2.4905E-01   1.4684E+00  0.000E+00  0.000E+00  0.000E+00  1.07264E+03  1.727E+00  8.909E+00  6.682E-02  1.864E+00
   1    3    7     3     3    1.4684E+00  1.9718E-01   1.2712E+00  0.000E+00  0.000E+00  0.000E+00  1.06987E+03  1.555E+00  8.218E+00  5.547E-02  1.777E+00
   1    4    8     3     4    1.2712E+00  2.2567E-01   1.0456E+00  0.000E+00  0.000E+00  0.000E+00  1.06682E+03  1.364E+00  7.455E+00  6.709E-02  1.682E+00
   1    5    8     3     5    1.0456E+00  1.5790E-01   8.8768E-01  0.000E+00  0.000E+00  0.000E+00  1.06362E+03  1.164E+00  6.655E+00  4.991E-02  1.582E+00
   1    6    8     3     6    8.8768E-01  5.5980E-02   8.3170E-01  0.000E+00  0.000E+00  0.000E+00  1.06158E+03  1.036E+00  6.145E+00  1.844E-02  1.518E+00
   1    5   10     4     1    1.0000E+01  9.0919E-02   9.9091E+00  0.000E+00  0.000E+00  0.000E+00  1.07836E+03  6.368E-01  1.000E+01  2.500E-02  1.212E+00
   1    5    9     4     2    9.9091E+00  1.8158E-01   9.7275E+00  0.000E+00  0.000E+00  0.000E+00  1.07154E+03  6.315E-01  1.000E+01  5.000E-02  1.211E+00
   1    6    8     4     3    9.7275E+00  1.2689E-01   9.6006E+00  0.000E+00  0.000E+00  0.000E+00  1.06381E+03  6.256E-01  1.000E+01  3.500E-02  1.209E+00
   1    6    8     5     1    1.0432E+01  2.2686E-01   1.0205E+01  0.000E+00  0.000E+00  0.000E+00  1.05868E+03  6.790E-01  1.542E+01  6.166E-02  1.226E+00
   1    7    7     5     2    1.0205E+01  2.7894E-01   9.9265E+00  0.000E+00  0.000E+00  0.000E+00  1.05417E+03  6.732E-01  1.519E+01  7.594E-02  1.224E+00
   1    8    7     5     3    9.9265E+00  1.9221E-01   9.7343E+00  0.000E+00  0.000E+00  0.000E+00  1.04992E+03  6.676E-01  1.497E+01  5.241E-02  1.223E+00
   1    8    6     5     4    9.7343E+00  1.3577E-01   9.5985E+00  0.000E+00  0.000E+00  0.000E+00  1.04691E+03  6.637E-01  1.482E+01  3.706E-02  1.221E+00
   1    9    6     6     1    7.8051E+01  3.2488E-01   7.7726E+01  0.000E+00  0.000E+00  0.000E+00  1.04514E+03  2.415E+00  1.200E+01  6.000E-02  1.805E+00
   1   10    7     6     2    7.7726E+01  3.2452E-01   7.7401E+01  0.000E+00  0.000E+00  0.000E+00  1.04059E+03  2.409E+00  1.200E+01  6.000E-02  1.803E+00
   1   11    7     6     3    7.7401E+01  3.2415E-01   7.7077E+01  0.000E+00  0.000E+00  0.000E+00  1.03604E+03  2.403E+00  1.200E+01  6.000E-02  1.801E+00
   1   12    7     6     4    7.7077E+01  3.2379E-01   7.6753E+01  0.000E+00  0.000E+00  0.000E+00  1.03149E+03  2.397E+00  1.200E+01  6.000E-02  1.799E+00
   1   13    7     6     5    7.6753E+01  2.7921E-02   7.6725E+01  0.000E+00  0.000E+00  0.000E+00  1.02830E+03  2.393E+00  1.200E+01  2.400E-02  3.878E-01
   1   14    9     7     1    1.5000E+02  1.3357E+00   1.4866E+02  0.000E+00  0.000E+00  0.000E+00  1.03987E+03  2.288E+00  5.529E+01  5.593E-01  7.961E-01
   1   13    8     7     2    1.4866E+02  1.8236E+00   1.4684E+02  0.000E+00  0.000E+00  0.000E+00  1.03478E+03  2.279E+00  5.526E+01  6.148E-01  9.888E-01
   1   13    7     7     3    1.4684E+02  1.4247E+00   1.4542E+02  0.000E+00  0.000E+00  0.000E+00  1.02969E+03  2.271E+00  5.522E+01  5.585E-01  8.504E-01
   1   13    6     8     1    2.2214E+02  1.1019E+00   2.2104E+02  0.000E+00  0.000E+00  0.000E+00  1.02514E+03  3.261E+00  4.728E+01  4.818E-01  7.623E-01
   1   13    5     8     2    2.2104E+02  2.7094E-01   2.2077E+02  0.000E+00  0.000E+00  0.000E+00  1.01888E+03  3.257E+00  4.723E+01  4.812E-01  1.877E-01
   1   13    4     8     3    2.2077E+02 -1.6096E+00   2.2238E+02  0.000E+00  0.000E+00  0.000E+00  1.01264E+03  3.261E+00  4.728E+01  4.818E+00 -1.114E-01
   1   13    3     8     4    2.2238E+02 -2.8384E+00   2.2522E+02  0.000E+00  0.000E+00  0.000E+00  1.00640E+03  3.273E+00  4.746E+01  4.836E+00 -1.956E-01
   1   13    2     8     5    2.2522E+02 -1.6302E+00   2.2685E+02  0.000E+00  0.000E+00  0.000E+00  1.00016E+03  3.285E+00  4.763E+01  4.854E+00 -1.119E-01
   1   13    1     8     6    2.2685E+02 -1.4704E+00   2.2832E+02  0.000E+00  0.000E+00  0.000E+00  9.95168E+02  3.293E+00  4.776E+01  2.920E+00 -1.679E-01
   1    8    6     9     1    0.0000E+00  0.0000E+00   0.0000E+00  0.000E+00  0.000E+00  0.000E+00  1.07875E+03  0.000E+00  4.000E+00  0.000E+00  1.000E+00
   1    8    5     9     2    0.0000E+00  0.0000E+00   0.0000E+00  0.000E+00  0.000E+00  0.000E+00  1.07825E+03  0.000E+00  4.000E+00  0.000E+00  1.000E+00





UNSATURATED ZONE PACKAGE VOLUMETRIC BUDGET FOR  TIME STEP    30 STRESS PERIOD    5
  ------------------------------------------------------------------------------



     CUMULATIVE VOLUMES      L**3       RATES FOR THIS TIME STEP      L**3/T
     ------------------                 ------------------------

           IN:                                      IN:
           ---                                      ---
        INFILTRATION =    18772572.0337          INFILTRATION =           4.5675

          OUT:                                     OUT:
          ----                                     ----
              UZF ET =    18615489.4355                UZF ET =           4.5675
        UZF RECHARGE =       73224.0000          UZF RECHARGE =       0.0000E+00

            IN - OUT =       83858.5982              IN - OUT =       0.0000E+00

          STORAGE:                                 STORAGE:
          --------                                 --------
      STORAGE CHANGE =       83858.6509        STORAGE CHANGE =       2.0749E-17

 PERCENT DISCREPANCY IS DIFFERENCE BETWEEN IN-OUT MINUS CHANGE IN STORAGE
 DIVIDED BY THE AVERAGE OF IN AND OUT TIMES 100

 PERCENT DISCREPANCY =           0.00     PERCENT DISCREPANCY =           0.00






1
  VOLUMETRIC BUDGET FOR AGRICULTURAL FIELDS AT  END OF TIME STEP   30, STRESS PERIOD   5
  ------------------------------------------------------------------------------

     CUMULATIVE VOLUMES      L**3       RATES FOR THIS TIME STEP      L**3/T
     ------------------                 ------------------------

           IN:                                      IN:
           ---                                      ---
               AG WELLS  =     9783649.0000                 AG WELLS  =           3.7200
      DIVERSION SEGMENTS =           0.0000        DIVERSION SEGMENTS =           0.0000
       IRRIGATION PONDS  =           0.0000         IRRIGATION PONDS  =           0.0000
           GW IRRIGATION =           0.0000             GW IRRIGATION =           0.0000
           SW IRRIGATION =           0.0000             SW IRRIGATION =           0.0000
        SYSTEM LOSSES GW =           0.0000          SYSTEM LOSSES GW =           0.0000
        SYSTEM LOSSES SW =           0.0000          SYSTEM LOSSES SW =           0.0000

                TOTAL IN =     9783649.0000                  TOTAL IN =           3.7200

          OUT:                                     OUT:
          ----                                     ----
               AG WELLS  =           0.0000                 AG WELLS  =           0.0000
      DIVERSION SEGMENTS =           0.0000        DIVERSION SEGMENTS =           0.0000
       IRRIGATION PONDS  =           0.0000         IRRIGATION PONDS  =           0.0000
           GW IRRIGATION =     9783649.0000             GW IRRIGATION =           3.7200
           SW IRRIGATION =           0.0000             SW IRRIGATION =           0.0000
        SYSTEM LOSSES GW =           0.0000          SYSTEM LOSSES GW =           0.0000
        SYSTEM LOSSES SW =           0.0000          SYSTEM LOSSES SW =           0.0000

               TOTAL OUT =     9783649.0000                 TOTAL OUT =           3.7200

                IN - OUT =           0.0000                  IN - OUT =           0.0000

     PERCENT DISCREPANCY =           0.00         PERCENT DISCREPANCY =           0.00



1
  VOLUMETRIC BUDGET FOR ENTIRE MODEL AT END OF TIME STEP   30, STRESS PERIOD   5
  ------------------------------------------------------------------------------

     CUMULATIVE VOLUMES      L**3       RATES FOR THIS TIME STEP      L**3/T
     ------------------                 ------------------------

           IN:                                      IN:
           ---                                      ---
             STORAGE     =    17260302.0000               STORAGE     =           3.5383
       CONSTANT HEAD     =           0.0000         CONSTANT HEAD     =           0.0000
     HEAD DEP BOUNDS     =     3030241.0000       HEAD DEP BOUNDS     =           0.2858
      STREAM LEAKAGE     =   126057432.0000        STREAM LEAKAGE     =          13.4818
        UZF RECHARGE     =       73223.9531          UZF RECHARGE     =           0.0000
               GW ET     =           0.0000                 GW ET     =           0.0000
     SURFACE LEAKAGE     =           0.0000       SURFACE LEAKAGE     =           0.0000
           AG WELLS      =           0.0000             AG WELLS      =           0.0000

                TOTAL IN =   146421184.0000                  TOTAL IN =          17.3058

          OUT:                                     OUT:
          ----                                     ----
             STORAGE     =    20813040.0000               STORAGE     =           5.7457
       CONSTANT HEAD     =           0.0000         CONSTANT HEAD     =           0.0000
     HEAD DEP BOUNDS     =     3085767.5000       HEAD DEP BOUNDS     =           0.2915
      STREAM LEAKAGE     =   112682712.0000        STREAM LEAKAGE     =           7.5486
        UZF RECHARGE     =           0.0000          UZF RECHARGE     =           0.0000
               GW ET     =       57024.9805                 GW ET     =           0.0000
     SURFACE LEAKAGE     =           0.0000       SURFACE LEAKAGE     =           0.0000
           AG WELLS      =     9783649.0000             AG WELLS      =           3.7200

               TOTAL OUT =   146422192.0000                 TOTAL OUT =          17.3058

                IN - OUT =       -1008.0000                  IN - OUT =       1.1444E-05

     PERCENT DISCREPANCY =          -0.00         PERCENT DISCREPANCY =           0.00






         TIME SUMMARY AT END OF TIME STEP   30 IN STRESS PERIOD    5
                    SECONDS     MINUTES      HOURS       DAYS        YEARS
                    -----------------------------------------------------------
   TIME STEP LENGTH  87667.      1461.1      24.352      1.0147     2.77799E-03
 STRESS PERIOD TIME 2.63000E+06  43833.      730.56      30.440     8.33397E-02
         TOTAL TIME 1.06064E+07 1.76773E+05  2946.2      122.76     0.33610    
1
1
                            STRESS PERIOD NO.    6, LENGTH =   2630000.    
                            -----------------------------------------------

                              NUMBER OF TIME STEPS =    30

                               MULTIPLIER FOR DELT =     1.000

                            INITIAL TIME STEP SIZE =   87666.66    

 REUSING NON-PARAMETER GHB CELLS FROM LAST STRESS PERIOD

      2 GHB CELLS

 REUSING STREAM SEGMENT DATA FROM LAST STRESS PERIOD



            AREAL INFILTRATION RATE
 READING ON UNIT   19 WITH FORMAT: (FREE)              

            1           2           3           4           5           6           7           8           9          10
 ........................................................................................................................
   1   1.0000E-10  2.0000E-10   0.000       0.000       0.000       0.000       0.000       0.000       0.000       0.000    
   2   2.0000E-10  1.0000E-10  2.0000E-10   0.000       0.000      8.0000E-10  8.0000E-10  5.0000E-10   0.000       0.000    
   3    0.000      5.0000E-10  1.0000E-10  1.0000E-10  8.0000E-10  8.0000E-10  5.0000E-10  5.0000E-10   0.000       0.000    
   4   8.0000E-10  5.0000E-10  1.0000E-10  1.0000E-10  1.0000E-10  1.0000E-10  1.0000E-10  1.0000E-10  2.0000E-10   0.000    
   5   8.0000E-10  5.0000E-10  1.0000E-10  1.0000E-10  1.0000E-10  1.0000E-10  1.0000E-10  1.0000E-10  1.0000E-10  1.0000E-10
   6   8.0000E-10  5.0000E-10  5.0000E-10  2.0000E-10  2.0000E-10  1.0000E-10  1.0000E-10  1.0000E-10  1.0000E-10  5.0000E-10
   7   8.0000E-10  5.0000E-10  5.0000E-10  2.0000E-10  2.0000E-10  1.0000E-10  1.0000E-10  2.0000E-10  2.0000E-10   0.000    
   8    0.000      5.0000E-10  5.0000E-10  2.0000E-10  2.0000E-10  1.0000E-10  1.0000E-10  2.0000E-10  5.0000E-10   0.000    
   9    0.000      5.0000E-10  5.0000E-10  2.0000E-10  2.0000E-10  1.0000E-10  1.0000E-10  2.0000E-10  5.0000E-10   0.000    
  10    0.000      5.0000E-10  5.0000E-10  2.0000E-10  2.0000E-10  1.0000E-10  1.0000E-10  2.0000E-10  5.0000E-10  8.0000E-10
  11    0.000      1.0000E-10  1.0000E-10  1.0000E-10  1.0000E-10  1.0000E-10  1.0000E-10  2.0000E-10  5.0000E-10   0.000    
  12   1.0000E-10  1.0000E-10  1.0000E-10  1.0000E-10  1.0000E-10  1.0000E-10  1.0000E-10  1.0000E-10  2.0000E-10   0.000    
  13   1.0000E-10  1.0000E-10  2.0000E-10  2.0000E-10  2.0000E-10  2.0000E-10  2.0000E-10  1.0000E-10  1.0000E-10   0.000    
  14    0.000      2.0000E-10  5.0000E-10  5.0000E-10  5.0000E-10  5.0000E-10  5.0000E-10  2.0000E-10  1.0000E-10   0.000    
  15    0.000       0.000      8.0000E-10  8.0000E-10  8.0000E-10  8.0000E-10   0.000       0.000       0.000       0.000    

                  ET RATE =  5.000000E-08

 USING ET EXTINCTION DEPTH FROM PREVIOUS STRESS PERIOD. CURRENT PERIOD IS:       6

 USING EXTINCTION WATER CONTENT FROM PREVIOUS STRESS PERIOD. CURRENT PERIOD IS:       6

 USING AIR ENTRY PRESSURE FROM PREVIOUS STRESS PERIOD. CURRENT PERIOD IS:       6

 USING ROOT PRESSURE HEAD FROM PREVIOUS STRESS PERIOD. CURRENT PERIOD IS:       6

 USING ROOT ACTIVITY FROM PREVIOUS STRESS PERIOD. CURRENT PERIOD IS:       6

 PROCESSING AG STRESS PERIOD DATA

 READING AG STRESS PERIOD DATA

 READING IRRIGATION SEGMENT

 READING IRRIGATION WELL

 READING SUPPLEMENTAL WELL

 NO IRRPOND OR REUSING IRRPOND DATA FROM LAST STRESS PERIOD

 END PROCESSING AG STRESS PERIOD DATA OPTIONS
 
 SOLVING FOR HEAD 
                                                   Max.-Head-Change                         Max.-Flux-Residual
  Residual-Control   Outer-Iter.   Inner-Iter.     Column Row Layer    Maximum-Head-Change  Column Row Layer    Maximum-Flux-Residual          L2-NORM 
          0                 1           2             4    7     1      -0.2089471375E-01       4    7    1        -0.1093759232E+01      0.3104099678E+01
          0                 2           2             4    7     1       0.2031028121E-02       4    7    1         0.1092976133E+00      0.3075346354E+00
          0                 3           2             4    7     1      -0.1383055375E-03       4    7    1        -0.7650839524E-02      0.2069760277E-01
          0                 4           1             4    7     1       0.5503306297E-05       4    7    1         0.3129197480E-03      0.8320250882E-03

    ------------------------------------------------
       NWT REQUIRED            4 OUTER ITERATIONS 
       AND A TOTAL OF          7 INNER ITERATIONS.
    ------------------------------------------------

 NO OUTPUT CONTROL FOR STRESS PERIOD    6   TIME STEP    1
 
 SOLVING FOR HEAD 
                                                   Max.-Head-Change                         Max.-Flux-Residual
  Residual-Control   Outer-Iter.   Inner-Iter.     Column Row Layer    Maximum-Head-Change  Column Row Layer    Maximum-Flux-Residual          L2-NORM 
          0                 1           2             4    7     1      -0.2073463398E-01       4    7    1        -0.1085687516E+01      0.2994871765E+01
          0                 2           2             4    7     1       0.2016908979E-02       3   13    1        -0.1123817832E+00      0.3081729802E+00
          0                 3           2             4    7     1      -0.1373440781E-03       3   13    1         0.7611898512E-02      0.2098344066E-01
          0                 4           1             4    7     1       0.5465049165E-05       4    7    1         0.3108319950E-03      0.8411948725E-03

    ------------------------------------------------
       NWT REQUIRED            4 OUTER ITERATIONS 
       AND A TOTAL OF          7 INNER ITERATIONS.
    ------------------------------------------------

 NO OUTPUT CONTROL FOR STRESS PERIOD    6   TIME STEP    2
 
 SOLVING FOR HEAD 
                                                   Max.-Head-Change                         Max.-Flux-Residual
  Residual-Control   Outer-Iter.   Inner-Iter.     Column Row Layer    Maximum-Head-Change  Column Row Layer    Maximum-Flux-Residual          L2-NORM 
          0                 1           2             4    7     1      -0.2057013204E-01       4    7    1        -0.1077358311E+01      0.2890398068E+01
          0                 2           2             4    7     1       0.2000907280E-02       4   13    1        -0.1143066610E+00      0.2981594643E+00
          0                 3           2             4    7     1      -0.1362544233E-03       4   13    1         0.7890267048E-02      0.2062729138E-01
          0                 4           1             4    7     1       0.5421690960E-05       4   13    1        -0.3145308619E-03      0.8279702488E-03

    ------------------------------------------------
       NWT REQUIRED            4 OUTER ITERATIONS 
       AND A TOTAL OF          7 INNER ITERATIONS.
    ------------------------------------------------

 NO OUTPUT CONTROL FOR STRESS PERIOD    6   TIME STEP    3
 
 SOLVING FOR HEAD 
                                                   Max.-Head-Change                         Max.-Flux-Residual
  Residual-Control   Outer-Iter.   Inner-Iter.     Column Row Layer    Maximum-Head-Change  Column Row Layer    Maximum-Flux-Residual          L2-NORM 
          0                 1           2             4    7     1      -0.2040198728E-01       4    7    1        -0.1068814093E+01      0.2790866593E+01
          0                 2           2             4    7     1       0.1984551259E-02       4    7    1         0.1068810313E+00      0.2772694842E+00
          0                 3           2             4    7     1      -0.1351406396E-03       4    7    1        -0.7481678987E-02      0.1924294764E-01
          0                 4           1             4    7     1       0.5377371899E-05       4    7    1         0.3060010597E-03      0.7767857005E-03

    ------------------------------------------------
       NWT REQUIRED            4 OUTER ITERATIONS 
       AND A TOTAL OF          7 INNER ITERATIONS.
    ------------------------------------------------

 NO OUTPUT CONTROL FOR STRESS PERIOD    6   TIME STEP    4
 
 SOLVING FOR HEAD 
                                                   Max.-Head-Change                         Max.-Flux-Residual
  Residual-Control   Outer-Iter.   Inner-Iter.     Column Row Layer    Maximum-Head-Change  Column Row Layer    Maximum-Flux-Residual          L2-NORM 
          0                 1           2             4    7     1      -0.2023066726E-01       4    7    1        -0.1060080998E+01      0.2704459781E+01
          0                 2           2             4    7     1       0.1967886395E-02       4    7    1         0.1060077147E+00      0.2689292674E+00
          0                 3           2             4    7     1      -0.1340058255E-03       4    7    1        -0.7420546872E-02      0.1868620810E-01
          0                 4           1             4    7     1       0.5332217242E-05       4    7    1         0.3035007917E-03      0.7556311807E-03

    ------------------------------------------------
       NWT REQUIRED            4 OUTER ITERATIONS 
       AND A TOTAL OF          7 INNER ITERATIONS.
    ------------------------------------------------

 NO OUTPUT CONTROL FOR STRESS PERIOD    6   TIME STEP    5
 
 SOLVING FOR HEAD 
                                                   Max.-Head-Change                         Max.-Flux-Residual
  Residual-Control   Outer-Iter.   Inner-Iter.     Column Row Layer    Maximum-Head-Change  Column Row Layer    Maximum-Flux-Residual          L2-NORM 
          0                 1           2             4    7     1      -0.2005660703E-01       4    7    1        -0.1051183270E+01      0.2629100672E+01
          0                 2           2             4    7     1       0.1950955002E-02       4    7    1         0.1051179360E+00      0.2616441666E+00
          0                 3           2             4    7     1      -0.1328528613E-03       4    7    1        -0.7358262402E-02      0.1819939465E-01
          0                 4           1             4    7     1       0.5286339584E-05       4    7    1         0.3009533366E-03      0.7373020900E-03

    ------------------------------------------------
       NWT REQUIRED            4 OUTER ITERATIONS 
       AND A TOTAL OF          7 INNER ITERATIONS.
    ------------------------------------------------

 NO OUTPUT CONTROL FOR STRESS PERIOD    6   TIME STEP    6
 
 SOLVING FOR HEAD 
                                                   Max.-Head-Change                         Max.-Flux-Residual
  Residual-Control   Outer-Iter.   Inner-Iter.     Column Row Layer    Maximum-Head-Change  Column Row Layer    Maximum-Flux-Residual          L2-NORM 
          0                 1           2             4    7     1      -0.1987994754E-01       4    7    1        -0.1042128650E+01      0.2562861971E+01
          0                 2           2             4    7     1       0.1933770791E-02       4    7    1         0.1042124696E+00      0.2552290845E+00
          0                 3           2             4    7     1      -0.1316826805E-03       4    7    1        -0.7294879750E-02      0.1776939240E-01
          0                 4           1             4    7     1       0.5239776687E-05       4    7    1         0.2983609745E-03      0.7209115360E-03

    ------------------------------------------------
       NWT REQUIRED            4 OUTER ITERATIONS 
       AND A TOTAL OF          7 INNER ITERATIONS.
    ------------------------------------------------

 NO OUTPUT CONTROL FOR STRESS PERIOD    6   TIME STEP    7
 
 SOLVING FOR HEAD 
                                                   Max.-Head-Change                         Max.-Flux-Residual
  Residual-Control   Outer-Iter.   Inner-Iter.     Column Row Layer    Maximum-Head-Change  Column Row Layer    Maximum-Flux-Residual          L2-NORM 
          0                 1           2             4    7     1      -0.1970135243E-01       4    7    1        -0.1032954075E+01      0.2504167463E+01
          0                 2           2             4    7     1       0.1916398314E-02       4    7    1         0.1032950088E+00      0.2495334455E+00
          0                 3           2             4    7     1      -0.1304996798E-03       4    7    1        -0.7230657503E-02      0.1738634968E-01
          0                 4           1             4    7     1       0.5192704235E-05       4    7    1         0.2957342879E-03      0.7060545608E-03

    ------------------------------------------------
       NWT REQUIRED            4 OUTER ITERATIONS 
       AND A TOTAL OF          7 INNER ITERATIONS.
    ------------------------------------------------

 NO OUTPUT CONTROL FOR STRESS PERIOD    6   TIME STEP    8
 
 SOLVING FOR HEAD 
                                                   Max.-Head-Change                         Max.-Flux-Residual
  Residual-Control   Outer-Iter.   Inner-Iter.     Column Row Layer    Maximum-Head-Change  Column Row Layer    Maximum-Flux-Residual          L2-NORM 
          0                 1           2             4    7     1      -0.1952117751E-01       4    7    1        -0.1023679142E+01      0.2451731836E+01
          0                 2           2             4    7     1       0.1898872180E-02       4    7    1         0.1023675132E+00      0.2444347377E+00
          0                 3           2             4    7     1      -0.1293062153E-03       4    7    1        -0.7165732811E-02      0.1704269098E-01
          0                 4           1             4    7     1       0.5145215021E-05       4    7    1         0.2930788653E-03      0.6926420853E-03

    ------------------------------------------------
       NWT REQUIRED            4 OUTER ITERATIONS 
       AND A TOTAL OF          7 INNER ITERATIONS.
    ------------------------------------------------

 NO OUTPUT CONTROL FOR STRESS PERIOD    6   TIME STEP    9
 
 SOLVING FOR HEAD 
                                                   Max.-Head-Change                         Max.-Flux-Residual
  Residual-Control   Outer-Iter.   Inner-Iter.     Column Row Layer    Maximum-Head-Change  Column Row Layer    Maximum-Flux-Residual          L2-NORM 
          0                 1           2             4    7     1      -0.1933948251E-01       4    7    1        -0.1014307486E+01      0.2404505296E+01
          0                 2           2             4    7     1       0.1881198198E-02       4    7    1         0.1014303463E+00      0.2398314958E+00
          0                 3           2             4    7     1      -0.1281026829E-03       4    7    1        -0.7100131121E-02      0.1673142636E-01
          0                 4           1             4    7     1       0.5097325393E-05       4    7    1         0.2903957536E-03      0.6809281073E-03

    ------------------------------------------------
       NWT REQUIRED            4 OUTER ITERATIONS 
       AND A TOTAL OF          7 INNER ITERATIONS.
    ------------------------------------------------

 NO OUTPUT CONTROL FOR STRESS PERIOD    6   TIME STEP   10
 
 SOLVING FOR HEAD 
                                                   Max.-Head-Change                         Max.-Flux-Residual
  Residual-Control   Outer-Iter.   Inner-Iter.     Column Row Layer    Maximum-Head-Change  Column Row Layer    Maximum-Flux-Residual          L2-NORM 
          0                 1           2             4    7     1      -0.1915685871E-01       4    7    1        -0.1004871828E+01      0.2361638822E+01
          0                 2           2             4    7     1       0.1863433681E-02       4    7    1         0.1004867801E+00      0.2356421880E+00
          0                 3           2             4    7     1      -0.1268929853E-03       4    7    1        -0.7034081458E-02      0.1644754460E-01
          0                 4           1             4    7     1       0.5049190543E-05       4    7    1         0.2876943197E-03      0.6697700658E-03

    ------------------------------------------------
       NWT REQUIRED            4 OUTER ITERATIONS 
       AND A TOTAL OF          7 INNER ITERATIONS.
    ------------------------------------------------

 NO OUTPUT CONTROL FOR STRESS PERIOD    6   TIME STEP   11
 
 SOLVING FOR HEAD 
                                                   Max.-Head-Change                         Max.-Flux-Residual
  Residual-Control   Outer-Iter.   Inner-Iter.     Column Row Layer    Maximum-Head-Change  Column Row Layer    Maximum-Flux-Residual          L2-NORM 
          0                 1           2             4    7     1      -0.1897358920E-01       4    7    1        -0.9953880246E+00      0.2322433934E+01
          0                 2           2             4    7     1       0.1845606766E-02       4    7    1         0.9953840015E-01      0.2318069978E+00
          0                 3           2             4    7     1      -0.1256790383E-03       4    7    1        -0.6967694826E-02      0.1618617289E-01
          0                 4           1             4    7     1       0.5000886456E-05       4    7    1         0.2849791133E-03      0.6594945068E-03

    ------------------------------------------------
       NWT REQUIRED            4 OUTER ITERATIONS 
       AND A TOTAL OF          7 INNER ITERATIONS.
    ------------------------------------------------

 NO OUTPUT CONTROL FOR STRESS PERIOD    6   TIME STEP   12
 
 SOLVING FOR HEAD 
                                                   Max.-Head-Change                         Max.-Flux-Residual
  Residual-Control   Outer-Iter.   Inner-Iter.     Column Row Layer    Maximum-Head-Change  Column Row Layer    Maximum-Flux-Residual          L2-NORM 
          0                 1           2             4    7     1      -0.1878966571E-01       4    7    1        -0.9858559111E+00      0.2286331071E+01
          0                 2           2             4    7     1       0.1827716047E-02       4    7    1         0.9858518988E-01      0.2282651187E+00
          0                 3           2             4    7     1      -0.1244607459E-03       4    7    1        -0.6900970048E-02      0.1594463161E-01
          0                 4           1             4    7     1       0.4952409216E-05       4    7    1         0.2822500464E-03      0.6502007490E-03

    ------------------------------------------------
       NWT REQUIRED            4 OUTER ITERATIONS 
       AND A TOTAL OF          7 INNER ITERATIONS.
    ------------------------------------------------

 NO OUTPUT CONTROL FOR STRESS PERIOD    6   TIME STEP   13
 
 SOLVING FOR HEAD 
                                                   Max.-Head-Change                         Max.-Flux-Residual
  Residual-Control   Outer-Iter.   Inner-Iter.     Column Row Layer    Maximum-Head-Change  Column Row Layer    Maximum-Flux-Residual          L2-NORM 
          0                 1           2             4    7     1      -0.1860561603E-01       4    7    1        -0.9763047128E+00      0.2252866747E+01
          0                 2           2             4    7     1       0.1809813062E-02       4    7    1         0.9763007179E-01      0.2249762559E+00
          0                 3           2             4    7     1      -0.1232416189E-03       4    7    1        -0.6834111753E-02      0.1571991463E-01
          0                 4           1             4    7     1       0.4903899051E-05       4    7    1         0.2795155362E-03      0.6416410012E-03

    ------------------------------------------------
       NWT REQUIRED            4 OUTER ITERATIONS 
       AND A TOTAL OF          7 INNER ITERATIONS.
    ------------------------------------------------

 NO OUTPUT CONTROL FOR STRESS PERIOD    6   TIME STEP   14
 
 SOLVING FOR HEAD 
                                                   Max.-Head-Change                         Max.-Flux-Residual
  Residual-Control   Outer-Iter.   Inner-Iter.     Column Row Layer    Maximum-Head-Change  Column Row Layer    Maximum-Flux-Residual          L2-NORM 
          0                 1           2             4    7     1      -0.1842166805E-01       4    7    1        -0.9667469730E+00      0.2221663670E+01
          0                 2           2             4    7     1       0.1791919978E-02       4    7    1         0.9667430011E-01      0.2219036696E+00
          0                 3           2             4    7     1      -0.1220231660E-03       4    7    1        -0.6767207687E-02      0.1550914148E-01
          0                 4           1             4    7     1       0.4855415825E-05       4    7    1         0.2767791577E-03      0.6326636052E-03

    ------------------------------------------------
       NWT REQUIRED            4 OUTER ITERATIONS 
       AND A TOTAL OF          7 INNER ITERATIONS.
    ------------------------------------------------

 NO OUTPUT CONTROL FOR STRESS PERIOD    6   TIME STEP   15
 
 SOLVING FOR HEAD 
                                                   Max.-Head-Change                         Max.-Flux-Residual
  Residual-Control   Outer-Iter.   Inner-Iter.     Column Row Layer    Maximum-Head-Change  Column Row Layer    Maximum-Flux-Residual          L2-NORM 
          0                 1           2             4    7     1      -0.1823774927E-01       4    7    1        -0.9571796987E+00      0.2192411166E+01
          0                 2           2             4    7     1       0.1774029741E-02       4    7    1         0.9571757548E-01      0.2190182645E+00
          0                 3           2             4    7     1      -0.1208049066E-03       4    7    1        -0.6700236906E-02      0.1531080499E-01
          0                 4           1             4    7     1       0.4806939737E-05       4    7    1         0.2740400482E-03      0.6248058600E-03

    ------------------------------------------------
       NWT REQUIRED            4 OUTER ITERATIONS 
       AND A TOTAL OF          7 INNER ITERATIONS.
    ------------------------------------------------

 NO OUTPUT CONTROL FOR STRESS PERIOD    6   TIME STEP   16
 
 SOLVING FOR HEAD 
                                                   Max.-Head-Change                         Max.-Flux-Residual
  Residual-Control   Outer-Iter.   Inner-Iter.     Column Row Layer    Maximum-Head-Change  Column Row Layer    Maximum-Flux-Residual          L2-NORM 
          0                 1           2             4    7     1      -0.1805433675E-01       4    7    1        -0.9476287493E+00      0.2164851855E+01
          0                 2           2             4    7     1       0.1756188757E-02       4    7    1         0.9476248387E-01      0.2162955287E+00
          0                 3           1             4    7     1      -0.1195900050E-03       4    7    1        -0.6633380454E-02      0.1512309412E-01
          0                 4           1             4    7     1       0.4758601111E-05       4    7    1         0.2713056178E-03      0.6174733294E-03

    ------------------------------------------------
       NWT REQUIRED            4 OUTER ITERATIONS 
       AND A TOTAL OF          6 INNER ITERATIONS.
    ------------------------------------------------

 NO OUTPUT CONTROL FOR STRESS PERIOD    6   TIME STEP   17
 
 SOLVING FOR HEAD 
                                                   Max.-Head-Change                         Max.-Flux-Residual
  Residual-Control   Outer-Iter.   Inner-Iter.     Column Row Layer    Maximum-Head-Change  Column Row Layer    Maximum-Flux-Residual          L2-NORM 
          0                 1           2             4    7     1      -0.1787133017E-01       4    7    1        -0.9380892433E+00      0.2138783687E+01
          0                 2           2             4    7     1       0.1738387267E-02       4    7    1         0.9380853696E-01      0.2137167096E+00
          0                 3           1             4    7     1      -0.1183777886E-03       4    7    1        -0.6566604099E-02      0.1494525788E-01
          0                 4           1             4    7     1       0.4710365640E-05       4    7    1         0.2685744471E-03      0.6104199342E-03

    ------------------------------------------------
       NWT REQUIRED            4 OUTER ITERATIONS 
       AND A TOTAL OF          6 INNER ITERATIONS.
    ------------------------------------------------

 NO OUTPUT CONTROL FOR STRESS PERIOD    6   TIME STEP   18
 
 SOLVING FOR HEAD 
                                                   Max.-Head-Change                         Max.-Flux-Residual
  Residual-Control   Outer-Iter.   Inner-Iter.     Column Row Layer    Maximum-Head-Change  Column Row Layer    Maximum-Flux-Residual          L2-NORM 
          0                 1           2             4    7     1      -0.1768917844E-01       4    7    1        -0.9285855949E+00      0.2114032588E+01
          0                 2           2             4    7     1       0.1720668934E-02       4    7    1         0.9285817619E-01      0.2112651704E+00
          0                 3           1             4    7     1      -0.1171712356E-03       4    7    1        -0.6500078771E-02      0.1477590593E-01
          0                 4           1             4    7     1       0.4662356510E-05       4    7    1         0.2658535877E-03      0.6035977103E-03

    ------------------------------------------------
       NWT REQUIRED            4 OUTER ITERATIONS 
       AND A TOTAL OF          6 INNER ITERATIONS.
    ------------------------------------------------

 NO OUTPUT CONTROL FOR STRESS PERIOD    6   TIME STEP   19
 
 SOLVING FOR HEAD 
                                                   Max.-Head-Change                         Max.-Flux-Residual
  Residual-Control   Outer-Iter.   Inner-Iter.     Column Row Layer    Maximum-Head-Change  Column Row Layer    Maximum-Flux-Residual          L2-NORM 
          0                 1           2             4    7     1      -0.1750801928E-01       4    7    1        -0.9191262710E+00      0.2090439282E+01
          0                 2           2             4    7     1       0.1703047155E-02       4    7    1         0.9191224819E-01      0.2089256224E+00
          0                 3           1             4    7     1      -0.1159712567E-03       4    7    1        -0.6433863718E-02      0.1461387111E-01
          0                 4           1             4    7     1       0.4614608259E-05       4    7    1         0.2631453804E-03      0.5969393977E-03

    ------------------------------------------------
       NWT REQUIRED            4 OUTER ITERATIONS 
       AND A TOTAL OF          6 INNER ITERATIONS.
    ------------------------------------------------

 NO OUTPUT CONTROL FOR STRESS PERIOD    6   TIME STEP   20
 
 SOLVING FOR HEAD 
                                                   Max.-Head-Change                         Max.-Flux-Residual
  Residual-Control   Outer-Iter.   Inner-Iter.     Column Row Layer    Maximum-Head-Change  Column Row Layer    Maximum-Flux-Residual          L2-NORM 
          0                 1           2             4    7     1      -0.1732770916E-01       4    7    1        -0.9097036073E+00      0.2067889798E+01
          0                 2           2             4    7     1       0.1685507969E-02       4    7    1         0.9096998644E-01      0.2066872406E+00
          0                 3           1             4    7     1      -0.1147769025E-03       4    7    1        -0.6367905336E-02      0.1445885003E-01
          0                 4           1             4    7     1       0.4567083815E-05       4    7    1         0.2604476749E-03      0.5908795412E-03

    ------------------------------------------------
       NWT REQUIRED            4 OUTER ITERATIONS 
       AND A TOTAL OF          6 INNER ITERATIONS.
    ------------------------------------------------

 NO OUTPUT CONTROL FOR STRESS PERIOD    6   TIME STEP   21
 
 SOLVING FOR HEAD 
                                                   Max.-Head-Change                         Max.-Flux-Residual
  Residual-Control   Outer-Iter.   Inner-Iter.     Column Row Layer    Maximum-Head-Change  Column Row Layer    Maximum-Flux-Residual          L2-NORM 
          0                 1           2             4    7     1      -0.1714892865E-01       4    7    1        -0.9003545784E+00      0.2046290248E+01
          0                 2           2             4    7     1       0.1668117575E-02       4    7    1         0.9003508841E-01      0.2045414772E+00
          0                 3           1             4    7     1      -0.1135926811E-03       4    7    1        -0.6302462425E-02      0.1431008818E-01
          0                 4           1             4    7     1       0.4519962319E-05       4    7    1         0.2577710648E-03      0.5849058265E-03

    ------------------------------------------------
       NWT REQUIRED            4 OUTER ITERATIONS 
       AND A TOTAL OF          6 INNER ITERATIONS.
    ------------------------------------------------

 NO OUTPUT CONTROL FOR STRESS PERIOD    6   TIME STEP   22
 
 SOLVING FOR HEAD 
                                                   Max.-Head-Change                         Max.-Flux-Residual
  Residual-Control   Outer-Iter.   Inner-Iter.     Column Row Layer    Maximum-Head-Change  Column Row Layer    Maximum-Flux-Residual          L2-NORM 
          0                 1           2             4    7     1      -0.1697095069E-01       4    7    1        -0.8910404456E+00      0.2025523489E+01
          0                 2           2             4    7     1       0.1650805252E-02       4    7    1         0.8910368025E-01      0.2024765472E+00
          0                 3           1             4    7     1      -0.1124137751E-03       4    7    1        -0.6237263756E-02      0.1416654028E-01
          0                 4           1             4    7     1       0.4473052657E-05       4    7    1         0.2551044342E-03      0.5790682468E-03

    ------------------------------------------------
       NWT REQUIRED            4 OUTER ITERATIONS 
       AND A TOTAL OF          6 INNER ITERATIONS.
    ------------------------------------------------

 NO OUTPUT CONTROL FOR STRESS PERIOD    6   TIME STEP   23
 
 SOLVING FOR HEAD 
                                                   Max.-Head-Change                         Max.-Flux-Residual
  Residual-Control   Outer-Iter.   Inner-Iter.     Column Row Layer    Maximum-Head-Change  Column Row Layer    Maximum-Flux-Residual          L2-NORM 
          0                 1           2             4    7     1      -0.1679471539E-01       4    7    1        -0.8818123408E+00      0.2005539894E+01
          0                 2           2             4    7     1       0.1633662443E-02       4    7    1         0.8818087503E-01      0.2004883604E+00
          0                 3           1             4    7     1      -0.1112464125E-03       4    7    1        -0.6172667312E-02      0.1402813712E-01
          0                 4           1             4    7     1       0.4426602585E-05       4    7    1         0.2524624451E-03      0.5731577301E-03

    ------------------------------------------------
       NWT REQUIRED            4 OUTER ITERATIONS 
       AND A TOTAL OF          6 INNER ITERATIONS.
    ------------------------------------------------

 NO OUTPUT CONTROL FOR STRESS PERIOD    6   TIME STEP   24
 
 SOLVING FOR HEAD 
                                                   Max.-Head-Change                         Max.-Flux-Residual
  Residual-Control   Outer-Iter.   Inner-Iter.     Column Row Layer    Maximum-Head-Change  Column Row Layer    Maximum-Flux-Residual          L2-NORM 
          0                 1           2             4    7     1      -0.1661975031E-01       4    7    1        -0.8726449847E+00      0.1986266835E+01
          0                 2           2             4    7     1       0.1616643194E-02       4    7    1         0.8726414485E-01      0.1985696053E+00
          0                 3           1             4    7     1      -0.1100874642E-03       4    7    1        -0.6108496129E-02      0.1389463184E-01
          0                 4           1             4    7     1       0.4380486843E-05       4    7    1         0.2498378371E-03      0.5679393324E-03

    ------------------------------------------------
       NWT REQUIRED            4 OUTER ITERATIONS 
       AND A TOTAL OF          6 INNER ITERATIONS.
    ------------------------------------------------

 NO OUTPUT CONTROL FOR STRESS PERIOD    6   TIME STEP   25
 
 SOLVING FOR HEAD 
                                                   Max.-Head-Change                         Max.-Flux-Residual
  Residual-Control   Outer-Iter.   Inner-Iter.     Column Row Layer    Maximum-Head-Change  Column Row Layer    Maximum-Flux-Residual          L2-NORM 
          0                 1           2             4    7     1      -0.1644614520E-01       4    7    1        -0.8635434913E+00      0.1967638338E+01
          0                 2           2             4    7     1       0.1599756236E-02       4    7    1         0.8635400106E-01      0.1967141153E+00
          0                 3           1             4    7     1      -0.1089375240E-03       4    7    1        -0.6044785981E-02      0.1376544071E-01
          0                 4           1             4    7     1       0.4334729378E-05       4    7    1         0.2472320773E-03      0.5627586728E-03

    ------------------------------------------------
       NWT REQUIRED            4 OUTER ITERATIONS 
       AND A TOTAL OF          6 INNER ITERATIONS.
    ------------------------------------------------

 NO OUTPUT CONTROL FOR STRESS PERIOD    6   TIME STEP   26
 
 SOLVING FOR HEAD 
                                                   Max.-Head-Change                         Max.-Flux-Residual
  Residual-Control   Outer-Iter.   Inner-Iter.     Column Row Layer    Maximum-Head-Change  Column Row Layer    Maximum-Flux-Residual          L2-NORM 
          0                 1           2             4    7     1      -0.1627452315E-01       4    7    1        -0.8545421193E+00      0.1949620150E+01
          0                 2           2             4    7     1       0.1583062176E-02       4    7    1         0.8545386945E-01      0.1949185462E+00
          0                 3           1             4    7     1      -0.1078007195E-03       4    7    1        -0.5981776683E-02      0.1364030675E-01
          0                 4           1             4    7     1       0.4289495053E-05       4    7    1         0.2446549925E-03      0.5576003521E-03

    ------------------------------------------------
       NWT REQUIRED            4 OUTER ITERATIONS 
       AND A TOTAL OF          6 INNER ITERATIONS.
    ------------------------------------------------

 NO OUTPUT CONTROL FOR STRESS PERIOD    6   TIME STEP   27
 
 SOLVING FOR HEAD 
                                                   Max.-Head-Change                         Max.-Flux-Residual
  Residual-Control   Outer-Iter.   Inner-Iter.     Column Row Layer    Maximum-Head-Change  Column Row Layer    Maximum-Flux-Residual          L2-NORM 
          0                 1           2             4    7     1      -0.1610439121E-01       4    7    1        -0.8456139644E+00      0.1932171603E+01
          0                 2           2             4    7     1       0.1566513064E-02       4    7    1         0.8456105967E-01      0.1931791704E+00
          0                 3           1             4    7     1      -0.1066737855E-03       4    7    1        -0.5919279930E-02      0.1351906749E-01
          0                 4           1             4    7     1       0.4244653083E-05       4    7    1         0.2420988631E-03      0.5526735697E-03

    ------------------------------------------------
       NWT REQUIRED            4 OUTER ITERATIONS 
       AND A TOTAL OF          6 INNER ITERATIONS.
    ------------------------------------------------

 NO OUTPUT CONTROL FOR STRESS PERIOD    6   TIME STEP   28
 
 SOLVING FOR HEAD 
                                                   Max.-Head-Change                         Max.-Flux-Residual
  Residual-Control   Outer-Iter.   Inner-Iter.     Column Row Layer    Maximum-Head-Change  Column Row Layer    Maximum-Flux-Residual          L2-NORM 
          0                 1           2             4    7     1      -0.1593607787E-01       4    7    1        -0.8367778744E+00      0.1915224868E+01
          0                 2           2             4    7     1       0.1550140852E-02       4    7    1         0.8367745643E-01      0.1914890492E+00
          0                 3           1             4    7     1      -0.1055588977E-03       4    7    1        -0.5857427618E-02      0.1340121188E-01
          0                 4           1             4    7     1       0.4200290965E-05       4    7    1         0.2395691020E-03      0.5479462283E-03

    ------------------------------------------------
       NWT REQUIRED            4 OUTER ITERATIONS 
       AND A TOTAL OF          6 INNER ITERATIONS.
    ------------------------------------------------

 NO OUTPUT CONTROL FOR STRESS PERIOD    6   TIME STEP   29
 
 SOLVING FOR HEAD 
                                                   Max.-Head-Change                         Max.-Flux-Residual
  Residual-Control   Outer-Iter.   Inner-Iter.     Column Row Layer    Maximum-Head-Change  Column Row Layer    Maximum-Flux-Residual          L2-NORM 
          0                 1           2             4    7     1      -0.1576965192E-01       4    7    1        -0.8280360791E+00      0.1885620732E+01
          0                 2           2             4    7     1       0.1533952234E-02       4    7    1         0.8280328273E-01      0.1885664873E+00
          0                 3           1             4    7     1      -0.1044565120E-03       4    7    1        -0.5796235366E-02      0.1319928202E-01
          0                 4           1             4    7     1       0.4156426198E-05       4    7    1         0.2370663458E-03      0.5398326735E-03

    ------------------------------------------------
       NWT REQUIRED            4 OUTER ITERATIONS 
       AND A TOTAL OF          6 INNER ITERATIONS.
    ------------------------------------------------

 NO OUTPUT CONTROL FOR STRESS PERIOD    6   TIME STEP   30



 STREAM LISTING     PERIOD      6   STEP       30

 LAYER ROW COL. STREAM  RCH.  FLOW INTO     FLOW TO   FLOW OUT OF   OVRLND.     DIRECT     STREAM       STREAM     STREAM     STREAM   STREAMBED  STREAMBED
                SEG.NO.  NO.  STRM. RCH.    AQUIFER    STRM. RCH.    RUNOFF     PRECIP       ET          HEAD       DEPTH      WIDTH   CONDCTNC.   GRADIENT

   1    1    1     1     1    6.9266E+01  4.0352E-01   6.8863E+01  0.000E+00  0.000E+00  0.000E+00  1.09468E+03  1.634E+00  1.935E+01  8.707E-02  1.545E+00
   1    2    2     1     2    6.8863E+01  6.2503E-01   6.8238E+01  0.000E+00  0.000E+00  0.000E+00  1.08969E+03  1.628E+00  1.929E+01  1.350E-01  1.543E+00
   1    3    3     1     3    6.8238E+01  5.3316E-01   6.7704E+01  0.000E+00  0.000E+00  0.000E+00  1.08404E+03  1.622E+00  1.923E+01  1.154E-01  1.541E+00
   1    3    4     1     4    6.7704E+01  4.9106E-01   6.7213E+01  0.000E+00  0.000E+00  0.000E+00  1.07902E+03  1.616E+00  1.917E+01  1.064E-01  1.539E+00
   1    4    5     2     1    6.5213E+01  4.0112E-01   6.4812E+01  0.000E+00  0.000E+00  0.000E+00  1.07408E+03  2.143E+00  1.200E+01  7.800E-02  1.714E+00
   1    5    6     2     2    6.4812E+01  3.0814E-01   6.4504E+01  0.000E+00  0.000E+00  0.000E+00  1.06865E+03  2.136E+00  1.200E+01  6.000E-02  1.712E+00
   1    6    6     2     3    6.4504E+01  3.0777E-01   6.4196E+01  0.000E+00  0.000E+00  0.000E+00  1.06392E+03  2.129E+00  1.200E+01  6.000E-02  1.710E+00
   1    7    6     2     4    6.4196E+01  3.0740E-01   6.3889E+01  0.000E+00  0.000E+00  0.000E+00  1.05920E+03  2.123E+00  1.200E+01  6.000E-02  1.708E+00
   1    8    6     2     5    6.3889E+01  3.0704E-01   6.3582E+01  0.000E+00  0.000E+00  0.000E+00  1.05448E+03  2.117E+00  1.200E+01  6.000E-02  1.706E+00
   1    3    5     3     1    2.0000E+00  2.8252E-01   1.7175E+00  0.000E+00  0.000E+00  0.000E+00  1.07555E+03  1.909E+00  9.636E+00  7.227E-02  1.955E+00
   1    3    6     3     2    1.7175E+00  2.4905E-01   1.4684E+00  0.000E+00  0.000E+00  0.000E+00  1.07264E+03  1.727E+00  8.909E+00  6.682E-02  1.864E+00
   1    3    7     3     3    1.4684E+00  1.9718E-01   1.2712E+00  0.000E+00  0.000E+00  0.000E+00  1.06987E+03  1.555E+00  8.218E+00  5.547E-02  1.777E+00
   1    4    8     3     4    1.2712E+00  2.2567E-01   1.0456E+00  0.000E+00  0.000E+00  0.000E+00  1.06682E+03  1.364E+00  7.455E+00  6.709E-02  1.682E+00
   1    5    8     3     5    1.0456E+00  1.5790E-01   8.8768E-01  0.000E+00  0.000E+00  0.000E+00  1.06362E+03  1.164E+00  6.655E+00  4.991E-02  1.582E+00
   1    6    8     3     6    8.8768E-01  5.5980E-02   8.3170E-01  0.000E+00  0.000E+00  0.000E+00  1.06158E+03  1.036E+00  6.145E+00  1.844E-02  1.518E+00
   1    5   10     4     1    1.0000E+01  9.0919E-02   9.9091E+00  0.000E+00  0.000E+00  0.000E+00  1.07836E+03  6.368E-01  1.000E+01  2.500E-02  1.212E+00
   1    5    9     4     2    9.9091E+00  1.8158E-01   9.7275E+00  0.000E+00  0.000E+00  0.000E+00  1.07154E+03  6.315E-01  1.000E+01  5.000E-02  1.211E+00
   1    6    8     4     3    9.7275E+00  1.2689E-01   9.6006E+00  0.000E+00  0.000E+00  0.000E+00  1.06381E+03  6.256E-01  1.000E+01  3.500E-02  1.209E+00
   1    6    8     5     1    1.0432E+01  2.2686E-01   1.0205E+01  0.000E+00  0.000E+00  0.000E+00  1.05868E+03  6.790E-01  1.542E+01  6.166E-02  1.226E+00
   1    7    7     5     2    1.0205E+01  2.7894E-01   9.9265E+00  0.000E+00  0.000E+00  0.000E+00  1.05417E+03  6.732E-01  1.519E+01  7.594E-02  1.224E+00
   1    8    7     5     3    9.9265E+00  1.9221E-01   9.7343E+00  0.000E+00  0.000E+00  0.000E+00  1.04992E+03  6.676E-01  1.497E+01  5.241E-02  1.223E+00
   1    8    6     5     4    9.7343E+00  1.3577E-01   9.5985E+00  0.000E+00  0.000E+00  0.000E+00  1.04691E+03  6.637E-01  1.482E+01  3.706E-02  1.221E+00
   1    9    6     6     1    7.3180E+01  3.1938E-01   7.2861E+01  0.000E+00  0.000E+00  0.000E+00  1.04505E+03  2.323E+00  1.200E+01  6.000E-02  1.774E+00
   1   10    7     6     2    7.2861E+01  3.1901E-01   7.2542E+01  0.000E+00  0.000E+00  0.000E+00  1.04050E+03  2.317E+00  1.200E+01  6.000E-02  1.772E+00
   1   11    7     6     3    7.2542E+01  3.1864E-01   7.2223E+01  0.000E+00  0.000E+00  0.000E+00  1.03595E+03  2.311E+00  1.200E+01  6.000E-02  1.770E+00
   1   12    7     6     4    7.2223E+01  3.1828E-01   7.1905E+01  0.000E+00  0.000E+00  0.000E+00  1.03140E+03  2.305E+00  1.200E+01  6.000E-02  1.768E+00
   1   13    7     6     5    7.1905E+01  2.5170E-02   7.1880E+01  0.000E+00  0.000E+00  0.000E+00  1.02821E+03  2.301E+00  1.200E+01  2.400E-02  3.496E-01
   1   14    9     7     1    1.5000E+02  1.3359E+00   1.4866E+02  0.000E+00  0.000E+00  0.000E+00  1.03987E+03  2.288E+00  5.529E+01  5.593E-01  7.962E-01
   1   13    8     7     2    1.4866E+02  1.8204E+00   1.4684E+02  0.000E+00  0.000E+00  0.000E+00  1.03478E+03  2.279E+00  5.526E+01  6.148E-01  9.870E-01
   1   13    7     7     3    1.4684E+02  1.4120E+00   1.4543E+02  0.000E+00  0.000E+00  0.000E+00  1.02969E+03  2.271E+00  5.522E+01  5.585E-01  8.428E-01
   1   13    6     8     1    2.1731E+02  1.0460E+00   2.1627E+02  0.000E+00  0.000E+00  0.000E+00  1.02511E+03  3.234E+00  4.689E+01  4.779E-01  7.297E-01
   1   13    5     8     2    2.1627E+02  2.2426E-01   2.1604E+02  0.000E+00  0.000E+00  0.000E+00  1.01886E+03  3.230E+00  4.684E+01  4.773E-01  1.566E-01
   1   13    4     8     3    2.1604E+02 -2.3086E+00   2.1835E+02  0.000E+00  0.000E+00  0.000E+00  1.01261E+03  3.236E+00  4.693E+01  4.782E+00 -1.609E-01
   1   13    3     8     4    2.1835E+02 -3.4900E+00   2.2184E+02  0.000E+00  0.000E+00  0.000E+00  1.00638E+03  3.252E+00  4.716E+01  4.806E+00 -2.421E-01
   1   13    2     8     5    2.2184E+02 -2.5350E+00   2.2438E+02  0.000E+00  0.000E+00  0.000E+00  1.00014E+03  3.269E+00  4.740E+01  4.830E+00 -1.749E-01
   1   13    1     8     6    2.2438E+02 -1.9074E+00   2.2628E+02  0.000E+00  0.000E+00  0.000E+00  9.95156E+02  3.281E+00  4.758E+01  2.909E+00 -2.186E-01
   1    8    6     9     1    0.0000E+00  0.0000E+00   0.0000E+00  0.000E+00  0.000E+00  0.000E+00  1.07875E+03  0.000E+00  4.000E+00  0.000E+00  1.000E+00
   1    8    5     9     2    0.0000E+00  0.0000E+00   0.0000E+00  0.000E+00  0.000E+00  0.000E+00  1.07825E+03  0.000E+00  4.000E+00  0.000E+00  1.000E+00





UNSATURATED ZONE PACKAGE VOLUMETRIC BUDGET FOR  TIME STEP    30 STRESS PERIOD    6
  ------------------------------------------------------------------------------



     CUMULATIVE VOLUMES      L**3       RATES FOR THIS TIME STEP      L**3/T
     ------------------                 ------------------------

           IN:                                      IN:
           ---                                      ---
        INFILTRATION =    40647636.9882          INFILTRATION =           8.3175

          OUT:                                     OUT:
          ----                                     ----
              UZF ET =    40490513.3744                UZF ET =           8.3175
        UZF RECHARGE =       73224.0000          UZF RECHARGE =       0.0000E+00

            IN - OUT =       83899.6138              IN - OUT =       0.0000E+00

          STORAGE:                                 STORAGE:
          --------                                 --------
      STORAGE CHANGE =       83899.6672        STORAGE CHANGE =       1.5562E-16

 PERCENT DISCREPANCY IS DIFFERENCE BETWEEN IN-OUT MINUS CHANGE IN STORAGE
 DIVIDED BY THE AVERAGE OF IN AND OUT TIMES 100

 PERCENT DISCREPANCY =           0.00     PERCENT DISCREPANCY =           0.00






1
  VOLUMETRIC BUDGET FOR AGRICULTURAL FIELDS AT  END OF TIME STEP   30, STRESS PERIOD   6
  ------------------------------------------------------------------------------

     CUMULATIVE VOLUMES      L**3       RATES FOR THIS TIME STEP      L**3/T
     ------------------                 ------------------------

           IN:                                      IN:
           ---                                      ---
               AG WELLS  =    29429790.0000                 AG WELLS  =           7.4700
      DIVERSION SEGMENTS =           0.0000        DIVERSION SEGMENTS =           0.0000
       IRRIGATION PONDS  =           0.0000         IRRIGATION PONDS  =           0.0000
           GW IRRIGATION =           0.0000             GW IRRIGATION =           0.0000
           SW IRRIGATION =           0.0000             SW IRRIGATION =           0.0000
        SYSTEM LOSSES GW =           0.0000          SYSTEM LOSSES GW =           0.0000
        SYSTEM LOSSES SW =           0.0000          SYSTEM LOSSES SW =           0.0000

                TOTAL IN =    29429790.0000                  TOTAL IN =           7.4700

          OUT:                                     OUT:
          ----                                     ----
               AG WELLS  =           0.0000                 AG WELLS  =           0.0000
      DIVERSION SEGMENTS =           0.0000        DIVERSION SEGMENTS =           0.0000
       IRRIGATION PONDS  =           0.0000         IRRIGATION PONDS  =           0.0000
           GW IRRIGATION =    29429790.0000             GW IRRIGATION =           7.4700
           SW IRRIGATION =           0.0000             SW IRRIGATION =           0.0000
        SYSTEM LOSSES GW =           0.0000          SYSTEM LOSSES GW =           0.0000
        SYSTEM LOSSES SW =           0.0000          SYSTEM LOSSES SW =           0.0000

               TOTAL OUT =    29429790.0000                 TOTAL OUT =           7.4700

                IN - OUT =           0.0000                  IN - OUT =           0.0000

     PERCENT DISCREPANCY =           0.00         PERCENT DISCREPANCY =           0.00



1
  VOLUMETRIC BUDGET FOR ENTIRE MODEL AT END OF TIME STEP   30, STRESS PERIOD   6
  ------------------------------------------------------------------------------

     CUMULATIVE VOLUMES      L**3       RATES FOR THIS TIME STEP      L**3/T
     ------------------                 ------------------------

           IN:                                      IN:
           ---                                      ---
             STORAGE     =    35903032.0000               STORAGE     =           7.0874
       CONSTANT HEAD     =           0.0000         CONSTANT HEAD     =           0.0000
     HEAD DEP BOUNDS     =     3781787.5000       HEAD DEP BOUNDS     =           0.2858
      STREAM LEAKAGE     =   161378240.0000        STREAM LEAKAGE     =          13.2247
        UZF RECHARGE     =       73223.9531          UZF RECHARGE     =           0.0000
               GW ET     =           0.0000                 GW ET     =           0.0000
     SURFACE LEAKAGE     =           0.0000       SURFACE LEAKAGE     =           0.0000
           AG WELLS      =           0.0000             AG WELLS      =           0.0000

                TOTAL IN =   201136272.0000                  TOTAL IN =          20.5979

          OUT:                                     OUT:
          ----                                     ----
             STORAGE     =    29779276.0000               STORAGE     =           2.0978
       CONSTANT HEAD     =           0.0000         CONSTANT HEAD     =           0.0000
     HEAD DEP BOUNDS     =     3861408.2500       HEAD DEP BOUNDS     =           0.2969
      STREAM LEAKAGE     =   137058528.0000        STREAM LEAKAGE     =          10.2410
        UZF RECHARGE     =           0.0000          UZF RECHARGE     =           0.0000
               GW ET     =     1008269.5000                 GW ET     =           0.4923
     SURFACE LEAKAGE     =           0.0000       SURFACE LEAKAGE     =           0.0000
           AG WELLS      =    29429790.0000             AG WELLS      =           7.4700

               TOTAL OUT =   201137280.0000                 TOTAL OUT =          20.5979

                IN - OUT =       -1008.0000                  IN - OUT =      -1.5259E-05

     PERCENT DISCREPANCY =          -0.00         PERCENT DISCREPANCY =          -0.00






         TIME SUMMARY AT END OF TIME STEP   30 IN STRESS PERIOD    6
                    SECONDS     MINUTES      HOURS       DAYS        YEARS
                    -----------------------------------------------------------
   TIME STEP LENGTH  87667.      1461.1      24.352      1.0147     2.77799E-03
 STRESS PERIOD TIME 2.63000E+06  43833.      730.56      30.440     8.33397E-02
         TOTAL TIME 1.32364E+07 2.20607E+05  3676.8      153.20     0.41944    
1
1
                            STRESS PERIOD NO.    7, LENGTH =   2630000.    
                            -----------------------------------------------

                              NUMBER OF TIME STEPS =    30

                               MULTIPLIER FOR DELT =     1.000

                            INITIAL TIME STEP SIZE =   87666.66    

 REUSING NON-PARAMETER GHB CELLS FROM LAST STRESS PERIOD

      2 GHB CELLS

 REUSING STREAM SEGMENT DATA FROM LAST STRESS PERIOD



            AREAL INFILTRATION RATE
 READING ON UNIT   19 WITH FORMAT: (FREE)              

            1           2           3           4           5           6           7           8           9          10
 ........................................................................................................................
   1   1.0000E-10  2.0000E-10   0.000       0.000       0.000       0.000       0.000       0.000       0.000       0.000    
   2   2.0000E-10  1.0000E-10  2.0000E-10   0.000       0.000      8.0000E-10  8.0000E-10  5.0000E-10   0.000       0.000    
   3    0.000      5.0000E-10  1.0000E-10  1.0000E-10  8.0000E-10  8.0000E-10  5.0000E-10  5.0000E-10   0.000       0.000    
   4   8.0000E-10  5.0000E-10  1.0000E-10  1.0000E-10  1.0000E-10  1.0000E-10  1.0000E-10  1.0000E-10  2.0000E-10   0.000    
   5   8.0000E-10  5.0000E-10  1.0000E-10  1.0000E-10  1.0000E-10  1.0000E-10  1.0000E-10  1.0000E-10  1.0000E-10  1.0000E-10
   6   8.0000E-10  5.0000E-10  5.0000E-10  2.0000E-10  2.0000E-10  1.0000E-10  1.0000E-10  1.0000E-10  1.0000E-10  5.0000E-10
   7   8.0000E-10  5.0000E-10  5.0000E-10  2.0000E-10  2.0000E-10  1.0000E-10  1.0000E-10  2.0000E-10  2.0000E-10   0.000    
   8    0.000      5.0000E-10  5.0000E-10  2.0000E-10  2.0000E-10  1.0000E-10  1.0000E-10  2.0000E-10  5.0000E-10   0.000    
   9    0.000      5.0000E-10  5.0000E-10  2.0000E-10  2.0000E-10  1.0000E-10  1.0000E-10  2.0000E-10  5.0000E-10   0.000    
  10    0.000      5.0000E-10  5.0000E-10  2.0000E-10  2.0000E-10  1.0000E-10  1.0000E-10  2.0000E-10  5.0000E-10  8.0000E-10
  11    0.000      1.0000E-10  1.0000E-10  1.0000E-10  1.0000E-10  1.0000E-10  1.0000E-10  2.0000E-10  5.0000E-10   0.000    
  12   1.0000E-10  1.0000E-10  1.0000E-10  1.0000E-10  1.0000E-10  1.0000E-10  1.0000E-10  1.0000E-10  2.0000E-10   0.000    
  13   1.0000E-10  1.0000E-10  2.0000E-10  2.0000E-10  2.0000E-10  2.0000E-10  2.0000E-10  1.0000E-10  1.0000E-10   0.000    
  14    0.000      2.0000E-10  5.0000E-10  5.0000E-10  5.0000E-10  5.0000E-10  5.0000E-10  2.0000E-10  1.0000E-10   0.000    
  15    0.000       0.000      8.0000E-10  8.0000E-10  8.0000E-10  8.0000E-10   0.000       0.000       0.000       0.000    

                  ET RATE =  1.500000E-07

 USING ET EXTINCTION DEPTH FROM PREVIOUS STRESS PERIOD. CURRENT PERIOD IS:       7

 USING EXTINCTION WATER CONTENT FROM PREVIOUS STRESS PERIOD. CURRENT PERIOD IS:       7

 USING AIR ENTRY PRESSURE FROM PREVIOUS STRESS PERIOD. CURRENT PERIOD IS:       7

 USING ROOT PRESSURE HEAD FROM PREVIOUS STRESS PERIOD. CURRENT PERIOD IS:       7

 USING ROOT ACTIVITY FROM PREVIOUS STRESS PERIOD. CURRENT PERIOD IS:       7

 PROCESSING AG STRESS PERIOD DATA

 READING AG STRESS PERIOD DATA

 READING IRRIGATION SEGMENT

 READING IRRIGATION WELL

 READING SUPPLEMENTAL WELL

 NO IRRPOND OR REUSING IRRPOND DATA FROM LAST STRESS PERIOD

 END PROCESSING AG STRESS PERIOD DATA OPTIONS
 
 SOLVING FOR HEAD 
                                                   Max.-Head-Change                         Max.-Flux-Residual
  Residual-Control   Outer-Iter.   Inner-Iter.     Column Row Layer    Maximum-Head-Change  Column Row Layer    Maximum-Flux-Residual          L2-NORM 
          0                 1           2             4    7     1      -0.6348554729E-01       4    7    1        -0.3319377464E+01      0.7870237218E+01
          0                 2           2             4    7     1       0.6170260597E-02       4    7    1         0.3316607864E+00      0.7861255232E+00
          0                 3           2             4    7     1      -0.4201722582E-03       4    7    1        -0.2321628908E-01      0.5500845290E-01
          0                 4           1             4    7     1       0.1671904541E-04       4    7    1         0.9495474196E-03      0.2248686174E-02

    ------------------------------------------------
       NWT REQUIRED            4 OUTER ITERATIONS 
       AND A TOTAL OF          7 INNER ITERATIONS.
    ------------------------------------------------

 NO OUTPUT CONTROL FOR STRESS PERIOD    7   TIME STEP    1
 
 SOLVING FOR HEAD 
                                                   Max.-Head-Change                         Max.-Flux-Residual
  Residual-Control   Outer-Iter.   Inner-Iter.     Column Row Layer    Maximum-Head-Change  Column Row Layer    Maximum-Flux-Residual          L2-NORM 
          0                 1           2             4    7     1      -0.6306780692E-01       4    7    1        -0.3298681082E+01      0.7728043823E+01
          0                 2           2             4    7     1       0.6134735878E-02       4    7    1         0.3298654005E+00      0.7726390328E+00
          0                 3           2             4    7     1      -0.4177531810E-03       4    7    1        -0.2309061363E-01      0.5407045908E-01
          0                 4           1             4    7     1       0.1662278861E-04       4    7    1         0.9444073139E-03      0.2210484010E-02

    ------------------------------------------------
       NWT REQUIRED            4 OUTER ITERATIONS 
       AND A TOTAL OF          7 INNER ITERATIONS.
    ------------------------------------------------

 NO OUTPUT CONTROL FOR STRESS PERIOD    7   TIME STEP    2
 
 SOLVING FOR HEAD 
                                                   Max.-Head-Change                         Max.-Flux-Residual
  Residual-Control   Outer-Iter.   Inner-Iter.     Column Row Layer    Maximum-Head-Change  Column Row Layer    Maximum-Flux-Residual          L2-NORM 
          0                 1           2             4    7     1      -0.6263258013E-01       4    7    1        -0.3276978248E+01      0.7598504709E+01
          0                 2           2             4    7     1       0.6092398082E-02       4    7    1         0.3276949700E+00      0.7597335815E+00
          0                 3           2             4    7     1      -0.4148701543E-03       4    7    1        -0.2293868482E-01      0.5317158915E-01
          0                 4           1             4    7     1       0.1650806994E-04       4    7    1         0.9381933958E-03      0.2174070166E-02

    ------------------------------------------------
       NWT REQUIRED            4 OUTER ITERATIONS 
       AND A TOTAL OF          7 INNER ITERATIONS.
    ------------------------------------------------

 NO OUTPUT CONTROL FOR STRESS PERIOD    7   TIME STEP    3
 
 SOLVING FOR HEAD 
                                                   Max.-Head-Change                         Max.-Flux-Residual
  Residual-Control   Outer-Iter.   Inner-Iter.     Column Row Layer    Maximum-Head-Change  Column Row Layer    Maximum-Flux-Residual          L2-NORM 
          0                 1           2             4    7     1      -0.6218138207E-01       4    7    1        -0.3254352050E+01      0.7478850219E+01
          0                 2           2             4    7     1       0.6048506994E-02       4    7    1         0.3254322220E+00      0.7478015655E+00
          0                 3           2             4    7     1      -0.4118813517E-03       4    7    1        -0.2278029360E-01      0.5233937698E-01
          0                 4           1             4    7     1       0.1638914244E-04       4    7    1         0.9317151810E-03      0.2140301460E-02

    ------------------------------------------------
       NWT REQUIRED            4 OUTER ITERATIONS 
       AND A TOTAL OF          7 INNER ITERATIONS.
    ------------------------------------------------

 NO OUTPUT CONTROL FOR STRESS PERIOD    7   TIME STEP    4
 
 SOLVING FOR HEAD 
                                                   Max.-Head-Change                         Max.-Flux-Residual
  Residual-Control   Outer-Iter.   Inner-Iter.     Column Row Layer    Maximum-Head-Change  Column Row Layer    Maximum-Flux-Residual          L2-NORM 
          0                 1           2             4    7     1      -0.6171620596E-01       4    7    1        -0.3230912553E+01      0.7367162556E+01
          0                 2           2             4    7     1       0.6003256478E-02       4    7    1         0.3230881614E+00      0.7366560365E+00
          0                 3           2             4    7     1      -0.4087999743E-03       4    7    1        -0.2261621033E-01      0.5156130331E-01
          0                 4           1             4    7     1       0.1626653131E-04       4    7    1         0.9250041544E-03      0.2108475680E-02

    ------------------------------------------------
       NWT REQUIRED            4 OUTER ITERATIONS 
       AND A TOTAL OF          7 INNER ITERATIONS.
    ------------------------------------------------

 OUTPUT CONTROL FOR STRESS PERIOD    7   TIME STEP    5
    PRINT BUDGET
    SAVE BUDGET
 UBDSV1 SAVING "         STORAGE" ON UNIT 102 AT TIME STEP 5, STRESS PERIOD 7
 UBDSV2 SAVING "   CONSTANT HEAD" ON UNIT 102 AT TIME STEP 5, STRESS PERIOD 7
 UBDSV1 SAVING "FLOW RIGHT FACE " ON UNIT 102 AT TIME STEP 5, STRESS PERIOD 7
 UBDSV1 SAVING "FLOW FRONT FACE " ON UNIT 102 AT TIME STEP 5, STRESS PERIOD 7

  HEAD DEP BOUNDS   PERIOD    7   STEP     5
 BOUNDARY      1   LAYER   1   ROW    13   COL     1   RATE   -0.296793    
 BOUNDARY      2   LAYER   1   ROW    14   COL     9   RATE    0.285763    



 STREAM LISTING     PERIOD      7   STEP        5

 LAYER ROW COL. STREAM  RCH.  FLOW INTO     FLOW TO   FLOW OUT OF   OVRLND.     DIRECT     STREAM       STREAM     STREAM     STREAM   STREAMBED  STREAMBED
                SEG.NO.  NO.  STRM. RCH.    AQUIFER    STRM. RCH.    RUNOFF     PRECIP       ET          HEAD       DEPTH      WIDTH   CONDCTNC.   GRADIENT

   1    1    1     1     1    6.2250E+01  3.7978E-01   6.1870E+01  0.000E+00  0.000E+00  0.000E+00  1.09460E+03  1.553E+00  1.854E+01  8.342E-02  1.518E+00
   1    2    2     1     2    6.1870E+01  5.8817E-01   6.1282E+01  0.000E+00  0.000E+00  0.000E+00  1.08961E+03  1.547E+00  1.848E+01  1.294E-01  1.516E+00
   1    3    3     1     3    6.1282E+01  5.0163E-01   6.0781E+01  0.000E+00  0.000E+00  0.000E+00  1.08396E+03  1.540E+00  1.841E+01  1.105E-01  1.513E+00
   1    3    4     1     4    6.0781E+01  4.6194E-01   6.0319E+01  0.000E+00  0.000E+00  0.000E+00  1.07894E+03  1.534E+00  1.836E+01  1.019E-01  1.511E+00
   1    4    5     2     1    5.8319E+01  3.9026E-01   5.7928E+01  0.000E+00  0.000E+00  0.000E+00  1.07394E+03  2.003E+00  1.200E+01  7.800E-02  1.668E+00
   1    5    6     2     2    5.7928E+01  2.9977E-01   5.7629E+01  0.000E+00  0.000E+00  0.000E+00  1.06851E+03  1.996E+00  1.200E+01  6.000E-02  1.665E+00
   1    6    6     2     3    5.7629E+01  2.9940E-01   5.7329E+01  0.000E+00  0.000E+00  0.000E+00  1.06378E+03  1.990E+00  1.200E+01  6.000E-02  1.663E+00
   1    7    6     2     4    5.7329E+01  2.9903E-01   5.7030E+01  0.000E+00  0.000E+00  0.000E+00  1.05906E+03  1.984E+00  1.200E+01  6.000E-02  1.661E+00
   1    8    6     2     5    5.7030E+01  2.9865E-01   5.6732E+01  0.000E+00  0.000E+00  0.000E+00  1.05434E+03  1.978E+00  1.200E+01  6.000E-02  1.659E+00
   1    3    5     3     1    2.0000E+00  2.8252E-01   1.7175E+00  0.000E+00  0.000E+00  0.000E+00  1.07555E+03  1.909E+00  9.636E+00  7.227E-02  1.955E+00
   1    3    6     3     2    1.7175E+00  2.4905E-01   1.4684E+00  0.000E+00  0.000E+00  0.000E+00  1.07264E+03  1.727E+00  8.909E+00  6.682E-02  1.864E+00
   1    3    7     3     3    1.4684E+00  1.9718E-01   1.2712E+00  0.000E+00  0.000E+00  0.000E+00  1.06987E+03  1.555E+00  8.218E+00  5.547E-02  1.777E+00
   1    4    8     3     4    1.2712E+00  2.2567E-01   1.0456E+00  0.000E+00  0.000E+00  0.000E+00  1.06682E+03  1.364E+00  7.455E+00  6.709E-02  1.682E+00
   1    5    8     3     5    1.0456E+00  1.5790E-01   8.8768E-01  0.000E+00  0.000E+00  0.000E+00  1.06362E+03  1.164E+00  6.655E+00  4.991E-02  1.582E+00
   1    6    8     3     6    8.8768E-01  5.5980E-02   8.3170E-01  0.000E+00  0.000E+00  0.000E+00  1.06158E+03  1.036E+00  6.145E+00  1.844E-02  1.518E+00
   1    5   10     4     1    1.0000E+01  9.0919E-02   9.9091E+00  0.000E+00  0.000E+00  0.000E+00  1.07836E+03  6.368E-01  1.000E+01  2.500E-02  1.212E+00
   1    5    9     4     2    9.9091E+00  1.8158E-01   9.7275E+00  0.000E+00  0.000E+00  0.000E+00  1.07154E+03  6.315E-01  1.000E+01  5.000E-02  1.211E+00
   1    6    8     4     3    9.7275E+00  1.2689E-01   9.6006E+00  0.000E+00  0.000E+00  0.000E+00  1.06381E+03  6.256E-01  1.000E+01  3.500E-02  1.209E+00
   1    6    8     5     1    1.0432E+01  2.2686E-01   1.0205E+01  0.000E+00  0.000E+00  0.000E+00  1.05868E+03  6.790E-01  1.542E+01  6.166E-02  1.226E+00
   1    7    7     5     2    1.0205E+01  2.7894E-01   9.9265E+00  0.000E+00  0.000E+00  0.000E+00  1.05417E+03  6.732E-01  1.519E+01  7.594E-02  1.224E+00
   1    8    7     5     3    9.9265E+00  1.9221E-01   9.7343E+00  0.000E+00  0.000E+00  0.000E+00  1.04992E+03  6.676E-01  1.497E+01  5.241E-02  1.223E+00
   1    8    6     5     4    9.7343E+00  1.3577E-01   9.5985E+00  0.000E+00  0.000E+00  0.000E+00  1.04691E+03  6.637E-01  1.482E+01  3.706E-02  1.221E+00
   1    9    6     6     1    6.6330E+01  3.1138E-01   6.6019E+01  0.000E+00  0.000E+00  0.000E+00  1.04492E+03  2.190E+00  1.200E+01  6.000E-02  1.730E+00
   1   10    7     6     2    6.6019E+01  3.1101E-01   6.5708E+01  0.000E+00  0.000E+00  0.000E+00  1.04037E+03  2.184E+00  1.200E+01  6.000E-02  1.728E+00
   1   11    7     6     3    6.5708E+01  3.1064E-01   6.5397E+01  0.000E+00  0.000E+00  0.000E+00  1.03581E+03  2.177E+00  1.200E+01  6.000E-02  1.726E+00
   1   12    7     6     4    6.5397E+01  3.1027E-01   6.5087E+01  0.000E+00  0.000E+00  0.000E+00  1.03126E+03  2.171E+00  1.200E+01  6.000E-02  1.724E+00
   1   13    7     6     5    6.5087E+01  2.1888E-02   6.5065E+01  0.000E+00  0.000E+00  0.000E+00  1.02808E+03  2.168E+00  1.200E+01  2.400E-02  3.040E-01
   1   14    9     7     1    1.5000E+02  1.3359E+00   1.4866E+02  0.000E+00  0.000E+00  0.000E+00  1.03987E+03  2.288E+00  5.529E+01  5.593E-01  7.962E-01
   1   13    8     7     2    1.4866E+02  1.8198E+00   1.4684E+02  0.000E+00  0.000E+00  0.000E+00  1.03478E+03  2.279E+00  5.526E+01  6.148E-01  9.867E-01
   1   13    7     7     3    1.4684E+02  1.4102E+00   1.4543E+02  0.000E+00  0.000E+00  0.000E+00  1.02969E+03  2.271E+00  5.522E+01  5.585E-01  8.417E-01
   1   13    6     8     1    2.1050E+02  1.0138E+00   2.0949E+02  0.000E+00  0.000E+00  0.000E+00  1.02507E+03  3.196E+00  4.634E+01  4.722E-01  7.157E-01
   1   13    5     8     2    2.0949E+02  2.0203E-01   2.0928E+02  0.000E+00  0.000E+00  0.000E+00  1.01882E+03  3.192E+00  4.629E+01  4.717E-01  1.428E-01
   1   13    4     8     3    2.0928E+02 -2.3065E+00   2.1159E+02  0.000E+00  0.000E+00  0.000E+00  1.01257E+03  3.198E+00  4.637E+01  4.726E+00 -1.627E-01
   1   13    3     8     4    2.1159E+02 -3.4648E+00   2.1505E+02  0.000E+00  0.000E+00  0.000E+00  1.00634E+03  3.215E+00  4.661E+01  4.750E+00 -2.432E-01
   1   13    2     8     5    2.1505E+02 -2.6284E+00   2.1768E+02  0.000E+00  0.000E+00  0.000E+00  1.00011E+03  3.232E+00  4.686E+01  4.775E+00 -1.835E-01
   1   13    1     8     6    2.1768E+02 -1.9870E+00   2.1967E+02  0.000E+00  0.000E+00  0.000E+00  9.95120E+02  3.245E+00  4.705E+01  2.876E+00 -2.303E-01
   1    8    6     9     1    0.0000E+00  0.0000E+00   0.0000E+00  0.000E+00  0.000E+00  0.000E+00  1.07875E+03  0.000E+00  4.000E+00  0.000E+00  1.000E+00
   1    8    5     9     2    0.0000E+00  0.0000E+00   0.0000E+00  0.000E+00  0.000E+00  0.000E+00  1.07825E+03  0.000E+00  4.000E+00  0.000E+00  1.000E+00



 UBDSV3 SAVING "           GW ET" ON UNIT  61 AT TIME STEP 5, STRESS PERIOD 7
 UBDSV3 SAVING "    UZF RECHARGE" ON UNIT  61 AT TIME STEP 5, STRESS PERIOD 7
 UBDSV3 SAVING " SURFACE LEAKAGE" ON UNIT  61 AT TIME STEP 5, STRESS PERIOD 7
 UBDSV3 SAVING "       HORT+DUNN" ON UNIT  61 AT TIME STEP 5, STRESS PERIOD 7
 UBDSV3 SAVING "  STORAGE CHANGE" ON UNIT  61 AT TIME STEP 5, STRESS PERIOD 7


UNSATURATED ZONE PACKAGE VOLUMETRIC BUDGET FOR  TIME STEP     5 STRESS PERIOD    7
  ------------------------------------------------------------------------------



     CUMULATIVE VOLUMES      L**3       RATES FOR THIS TIME STEP      L**3/T
     ------------------                 ------------------------

           IN:                                      IN:
           ---                                      ---
        INFILTRATION =    50868618.8426          INFILTRATION =          23.3175

          OUT:                                     OUT:
          ----                                     ----
              UZF ET =    50711350.8538                UZF ET =          23.3175
        UZF RECHARGE =       73224.0000          UZF RECHARGE =       0.0000E+00

            IN - OUT =       84043.9888              IN - OUT =       0.0000E+00

          STORAGE:                                 STORAGE:
          --------                                 --------
      STORAGE CHANGE =       84044.1205        STORAGE CHANGE =       1.1412E-16

 PERCENT DISCREPANCY IS DIFFERENCE BETWEEN IN-OUT MINUS CHANGE IN STORAGE
 DIVIDED BY THE AVERAGE OF IN AND OUT TIMES 100

 PERCENT DISCREPANCY =           0.00     PERCENT DISCREPANCY =           0.00






 

            AG WELLS      PERIOD    7   STEP   5
 AG WELL      1   LAYER   1   ROW     6   COL     4   RATE    -3.74500    
 AG WELL      2   LAYER   1   ROW     6   COL     5   RATE    -3.74500    
 AG WELL      3   LAYER   1   ROW     7   COL     4   RATE    -3.74500    
 AG WELL      4   LAYER   1   ROW     7   COL     5   RATE    -3.74500    
 AG WELL      5   LAYER   1   ROW     8   COL     4   RATE    -3.74500    
 AG WELL      6   LAYER   1   ROW     8   COL     5   RATE    -3.74500    
 
 

   DIVERSION SEGMENTS     PERIOD    7   STEP   5
 SEGMENT      9   RATE     0.00000    
 
 

        SW IRRIGATION     PERIOD    7   STEP   5
 SEGMENT      9   ROW     6   COL     4   RATE     0.00000    
 SEGMENT      9   ROW     6   COL     5   RATE     0.00000    
 SEGMENT      9   ROW     7   COL     4   RATE     0.00000    
 SEGMENT      9   ROW     7   COL     5   RATE     0.00000    
 SEGMENT      9   ROW     8   COL     4   RATE     0.00000    
 SEGMENT      9   ROW     8   COL     5   RATE     0.00000    
 
 

        GW IRRIGATION     PERIOD    7   STEP   5
 AG WELL      1   ROW     6   COL     4   RATE     3.74500    
 AG WELL      2   ROW     6   COL     5   RATE     3.74500    
 AG WELL      3   ROW     7   COL     4   RATE     3.74500    
 AG WELL      4   ROW     7   COL     5   RATE     3.74500    
 AG WELL      5   ROW     8   COL     4   RATE     3.74500    
 AG WELL      6   ROW     8   COL     5   RATE     3.74500    
 
1
  VOLUMETRIC BUDGET FOR AGRICULTURAL FIELDS AT  END OF TIME STEP    5, STRESS PERIOD   7
  ------------------------------------------------------------------------------

     CUMULATIVE VOLUMES      L**3       RATES FOR THIS TIME STEP      L**3/T
     ------------------                 ------------------------

           IN:                                      IN:
           ---                                      ---
               AG WELLS  =    39279288.0000                 AG WELLS  =          22.4700
      DIVERSION SEGMENTS =           0.0000        DIVERSION SEGMENTS =           0.0000
       IRRIGATION PONDS  =           0.0000         IRRIGATION PONDS  =           0.0000
           GW IRRIGATION =           0.0000             GW IRRIGATION =           0.0000
           SW IRRIGATION =           0.0000             SW IRRIGATION =           0.0000
        SYSTEM LOSSES GW =           0.0000          SYSTEM LOSSES GW =           0.0000
        SYSTEM LOSSES SW =           0.0000          SYSTEM LOSSES SW =           0.0000

                TOTAL IN =    39279288.0000                  TOTAL IN =          22.4700

          OUT:                                     OUT:
          ----                                     ----
               AG WELLS  =           0.0000                 AG WELLS  =           0.0000
      DIVERSION SEGMENTS =           0.0000        DIVERSION SEGMENTS =           0.0000
       IRRIGATION PONDS  =           0.0000         IRRIGATION PONDS  =           0.0000
           GW IRRIGATION =    39279288.0000             GW IRRIGATION =          22.4700
           SW IRRIGATION =           0.0000             SW IRRIGATION =           0.0000
        SYSTEM LOSSES GW =           0.0000          SYSTEM LOSSES GW =           0.0000
        SYSTEM LOSSES SW =           0.0000          SYSTEM LOSSES SW =           0.0000

               TOTAL OUT =    39279288.0000                 TOTAL OUT =          22.4700

                IN - OUT =           0.0000                  IN - OUT =           0.0000

     PERCENT DISCREPANCY =           0.00         PERCENT DISCREPANCY =           0.00



1
  VOLUMETRIC BUDGET FOR ENTIRE MODEL AT END OF TIME STEP    5, STRESS PERIOD   7
  ------------------------------------------------------------------------------

     CUMULATIVE VOLUMES      L**3       RATES FOR THIS TIME STEP      L**3/T
     ------------------                 ------------------------

           IN:                                      IN:
           ---                                      ---
             STORAGE     =    45937776.0000               STORAGE     =          22.5686
       CONSTANT HEAD     =           0.0000         CONSTANT HEAD     =           0.0000
     HEAD DEP BOUNDS     =     3907046.5000       HEAD DEP BOUNDS     =           0.2858
      STREAM LEAKAGE     =   167063040.0000        STREAM LEAKAGE     =          12.9669
        UZF RECHARGE     =       73223.9531          UZF RECHARGE     =           0.0000
               GW ET     =           0.0000                 GW ET     =           0.0000
     SURFACE LEAKAGE     =           0.0000       SURFACE LEAKAGE     =           0.0000
           AG WELLS      =           0.0000             AG WELLS      =           0.0000

                TOTAL IN =   216981088.0000                  TOTAL IN =          35.8213

          OUT:                                     OUT:
          ----                                     ----
             STORAGE     =    30542226.0000               STORAGE     =           1.6926
       CONSTANT HEAD     =           0.0000         CONSTANT HEAD     =           0.0000
     HEAD DEP BOUNDS     =     3991513.0000       HEAD DEP BOUNDS     =           0.2968
      STREAM LEAKAGE     =   141663200.0000        STREAM LEAKAGE     =          10.3867
        UZF RECHARGE     =           0.0000          UZF RECHARGE     =           0.0000
               GW ET     =     1505874.3750                 GW ET     =           0.9753
     SURFACE LEAKAGE     =           0.0000       SURFACE LEAKAGE     =           0.0000
           AG WELLS      =    39279288.0000             AG WELLS      =          22.4700

               TOTAL OUT =   216982112.0000                 TOTAL OUT =          35.8214

                IN - OUT =       -1024.0000                  IN - OUT =      -6.8665E-05

     PERCENT DISCREPANCY =          -0.00         PERCENT DISCREPANCY =          -0.00






         TIME SUMMARY AT END OF TIME STEP    5 IN STRESS PERIOD    7
                    SECONDS     MINUTES      HOURS       DAYS        YEARS
                    -----------------------------------------------------------
   TIME STEP LENGTH  87667.      1461.1      24.352      1.0147     2.77799E-03
 STRESS PERIOD TIME 4.38333E+05  7305.6      121.76      5.0733     1.38899E-02
         TOTAL TIME 1.36747E+07 2.27912E+05  3798.5      158.27     0.43333    
1
 
 SOLVING FOR HEAD 
                                                   Max.-Head-Change                         Max.-Flux-Residual
  Residual-Control   Outer-Iter.   Inner-Iter.     Column Row Layer    Maximum-Head-Change  Column Row Layer    Maximum-Flux-Residual          L2-NORM 
          0                 1           2             4    7     1      -0.6123865075E-01       4    7    1        -0.3206748309E+01      0.7262037887E+01
          0                 2           2             4    7     1       0.5956802045E-02       4    7    1         0.3206716420E+00      0.7261595960E+00
          0                 3           2             4    7     1      -0.4056366131E-03       4    7    1        -0.2244705482E-01      0.5082787066E-01
          0                 4           1             4    7     1       0.1614065840E-04       4    7    1         0.9180856832E-03      0.2078696389E-02

    ------------------------------------------------
       NWT REQUIRED            4 OUTER ITERATIONS 
       AND A TOTAL OF          7 INNER ITERATIONS.
    ------------------------------------------------

 NO OUTPUT CONTROL FOR STRESS PERIOD    7   TIME STEP    6
 
 SOLVING FOR HEAD 
                                                   Max.-Head-Change                         Max.-Flux-Residual
  Residual-Control   Outer-Iter.   Inner-Iter.     Column Row Layer    Maximum-Head-Change  Column Row Layer    Maximum-Flux-Residual          L2-NORM 
          0                 1           2             4    7     1      -0.6074994865E-01       4    7    1        -0.3181927435E+01      0.7162480682E+01
          0                 2           2             4    7     1       0.5909263540E-02       4    7    1         0.3181894743E+00      0.7162151248E+00
          0                 3           2             4    7     1      -0.4023994282E-03       4    7    1        -0.2227330376E-01      0.5013280149E-01
          0                 4           1             4    7     1       0.1601184742E-04       4    7    1         0.9109792531E-03      0.2050292028E-02

    ------------------------------------------------
       NWT REQUIRED            4 OUTER ITERATIONS 
       AND A TOTAL OF          7 INNER ITERATIONS.
    ------------------------------------------------

 NO OUTPUT CONTROL FOR STRESS PERIOD    7   TIME STEP    7
 
 SOLVING FOR HEAD 
                                                   Max.-Head-Change                         Max.-Flux-Residual
  Residual-Control   Outer-Iter.   Inner-Iter.     Column Row Layer    Maximum-Head-Change  Column Row Layer    Maximum-Flux-Residual          L2-NORM 
          0                 1           2             4    7     1      -0.6025152050E-01       4    7    1        -0.3156528612E+01      0.7067747152E+01
          0                 2           2             4    7     1       0.5860779155E-02       4    7    1         0.3156495254E+00      0.7067497164E+00
          0                 3           2             4    7     1      -0.3990978302E-03       4    7    1        -0.2209550789E-01      0.4947088965E-01
          0                 4           1             4    7     1       0.1588047439E-04       4    7    1         0.9037073974E-03      0.2023246619E-02

    ------------------------------------------------
       NWT REQUIRED            4 OUTER ITERATIONS 
       AND A TOTAL OF          7 INNER ITERATIONS.
    ------------------------------------------------

 NO OUTPUT CONTROL FOR STRESS PERIOD    7   TIME STEP    8
 
 SOLVING FOR HEAD 
                                                   Max.-Head-Change                         Max.-Flux-Residual
  Residual-Control   Outer-Iter.   Inner-Iter.     Column Row Layer    Maximum-Head-Change  Column Row Layer    Maximum-Flux-Residual          L2-NORM 
          0                 1           2             4    7     1      -0.5974496408E-01       4    7    1        -0.3130640297E+01      0.6977265536E+01
          0                 2           2             4    7     1       0.5811504289E-02       4    7    1         0.3130606397E+00      0.6977070558E+00
          0                 3           2             4    7     1      -0.3957424017E-03       4    7    1        -0.2191428633E-01      0.4883836462E-01
          0                 4           1             4    7     1       0.1574695815E-04       4    7    1         0.8962954032E-03      0.1997413126E-02

    ------------------------------------------------
       NWT REQUIRED            4 OUTER ITERATIONS 
       AND A TOTAL OF          7 INNER ITERATIONS.
    ------------------------------------------------

 NO OUTPUT CONTROL FOR STRESS PERIOD    7   TIME STEP    9
 
 SOLVING FOR HEAD 
                                                   Max.-Head-Change                         Max.-Flux-Residual
  Residual-Control   Outer-Iter.   Inner-Iter.     Column Row Layer    Maximum-Head-Change  Column Row Layer    Maximum-Flux-Residual          L2-NORM 
          0                 1           2             4    7     1      -0.5923123153E-01       4    7    1        -0.3104315763E+01      0.6890594788E+01
          0                 2           2             4    7     1       0.5761531547E-02       4    7    1         0.3104281433E+00      0.6890439011E+00
          0                 3           2             4    7     1      -0.3923394488E-03       4    7    1        -0.2173001191E-01      0.4823230126E-01
          0                 4           1             4    7     1       0.1561155152E-04       4    7    1         0.8887585755E-03      0.1972657343E-02

    ------------------------------------------------
       NWT REQUIRED            4 OUTER ITERATIONS 
       AND A TOTAL OF          7 INNER ITERATIONS.
    ------------------------------------------------

 OUTPUT CONTROL FOR STRESS PERIOD    7   TIME STEP   10
    PRINT BUDGET
    SAVE BUDGET
 UBDSV1 SAVING "         STORAGE" ON UNIT 102 AT TIME STEP 10, STRESS PERIOD 7
 UBDSV2 SAVING "   CONSTANT HEAD" ON UNIT 102 AT TIME STEP 10, STRESS PERIOD 7
 UBDSV1 SAVING "FLOW RIGHT FACE " ON UNIT 102 AT TIME STEP 10, STRESS PERIOD 7
 UBDSV1 SAVING "FLOW FRONT FACE " ON UNIT 102 AT TIME STEP 10, STRESS PERIOD 7

  HEAD DEP BOUNDS   PERIOD    7   STEP    10
 BOUNDARY      1   LAYER   1   ROW    13   COL     1   RATE   -0.296731    
 BOUNDARY      2   LAYER   1   ROW    14   COL     9   RATE    0.285763    



 STREAM LISTING     PERIOD      7   STEP       10

 LAYER ROW COL. STREAM  RCH.  FLOW INTO     FLOW TO   FLOW OUT OF   OVRLND.     DIRECT     STREAM       STREAM     STREAM     STREAM   STREAMBED  STREAMBED
                SEG.NO.  NO.  STRM. RCH.    AQUIFER    STRM. RCH.    RUNOFF     PRECIP       ET          HEAD       DEPTH      WIDTH   CONDCTNC.   GRADIENT

   1    1    1     1     1    6.2250E+01  3.7978E-01   6.1870E+01  0.000E+00  0.000E+00  0.000E+00  1.09460E+03  1.553E+00  1.854E+01  8.342E-02  1.518E+00
   1    2    2     1     2    6.1870E+01  5.8817E-01   6.1282E+01  0.000E+00  0.000E+00  0.000E+00  1.08961E+03  1.547E+00  1.848E+01  1.294E-01  1.516E+00
   1    3    3     1     3    6.1282E+01  5.0163E-01   6.0781E+01  0.000E+00  0.000E+00  0.000E+00  1.08396E+03  1.540E+00  1.841E+01  1.105E-01  1.513E+00
   1    3    4     1     4    6.0781E+01  4.6194E-01   6.0319E+01  0.000E+00  0.000E+00  0.000E+00  1.07894E+03  1.534E+00  1.836E+01  1.019E-01  1.511E+00
   1    4    5     2     1    5.8319E+01  3.9026E-01   5.7928E+01  0.000E+00  0.000E+00  0.000E+00  1.07394E+03  2.003E+00  1.200E+01  7.800E-02  1.668E+00
   1    5    6     2     2    5.7928E+01  2.9977E-01   5.7629E+01  0.000E+00  0.000E+00  0.000E+00  1.06851E+03  1.996E+00  1.200E+01  6.000E-02  1.665E+00
   1    6    6     2     3    5.7629E+01  2.9940E-01   5.7329E+01  0.000E+00  0.000E+00  0.000E+00  1.06378E+03  1.990E+00  1.200E+01  6.000E-02  1.663E+00
   1    7    6     2     4    5.7329E+01  2.9903E-01   5.7030E+01  0.000E+00  0.000E+00  0.000E+00  1.05906E+03  1.984E+00  1.200E+01  6.000E-02  1.661E+00
   1    8    6     2     5    5.7030E+01  2.9865E-01   5.6732E+01  0.000E+00  0.000E+00  0.000E+00  1.05434E+03  1.978E+00  1.200E+01  6.000E-02  1.659E+00
   1    3    5     3     1    2.0000E+00  2.8252E-01   1.7175E+00  0.000E+00  0.000E+00  0.000E+00  1.07555E+03  1.909E+00  9.636E+00  7.227E-02  1.955E+00
   1    3    6     3     2    1.7175E+00  2.4905E-01   1.4684E+00  0.000E+00  0.000E+00  0.000E+00  1.07264E+03  1.727E+00  8.909E+00  6.682E-02  1.864E+00
   1    3    7     3     3    1.4684E+00  1.9718E-01   1.2712E+00  0.000E+00  0.000E+00  0.000E+00  1.06987E+03  1.555E+00  8.218E+00  5.547E-02  1.777E+00
   1    4    8     3     4    1.2712E+00  2.2567E-01   1.0456E+00  0.000E+00  0.000E+00  0.000E+00  1.06682E+03  1.364E+00  7.455E+00  6.709E-02  1.682E+00
   1    5    8     3     5    1.0456E+00  1.5790E-01   8.8768E-01  0.000E+00  0.000E+00  0.000E+00  1.06362E+03  1.164E+00  6.655E+00  4.991E-02  1.582E+00
   1    6    8     3     6    8.8768E-01  5.5980E-02   8.3170E-01  0.000E+00  0.000E+00  0.000E+00  1.06158E+03  1.036E+00  6.145E+00  1.844E-02  1.518E+00
   1    5   10     4     1    1.0000E+01  9.0919E-02   9.9091E+00  0.000E+00  0.000E+00  0.000E+00  1.07836E+03  6.368E-01  1.000E+01  2.500E-02  1.212E+00
   1    5    9     4     2    9.9091E+00  1.8158E-01   9.7275E+00  0.000E+00  0.000E+00  0.000E+00  1.07154E+03  6.315E-01  1.000E+01  5.000E-02  1.211E+00
   1    6    8     4     3    9.7275E+00  1.2689E-01   9.6006E+00  0.000E+00  0.000E+00  0.000E+00  1.06381E+03  6.256E-01  1.000E+01  3.500E-02  1.209E+00
   1    6    8     5     1    1.0432E+01  2.2686E-01   1.0205E+01  0.000E+00  0.000E+00  0.000E+00  1.05868E+03  6.790E-01  1.542E+01  6.166E-02  1.226E+00
   1    7    7     5     2    1.0205E+01  2.7894E-01   9.9265E+00  0.000E+00  0.000E+00  0.000E+00  1.05417E+03  6.732E-01  1.519E+01  7.594E-02  1.224E+00
   1    8    7     5     3    9.9265E+00  1.9221E-01   9.7343E+00  0.000E+00  0.000E+00  0.000E+00  1.04992E+03  6.676E-01  1.497E+01  5.241E-02  1.223E+00
   1    8    6     5     4    9.7343E+00  1.3577E-01   9.5985E+00  0.000E+00  0.000E+00  0.000E+00  1.04691E+03  6.637E-01  1.482E+01  3.706E-02  1.221E+00
   1    9    6     6     1    6.6330E+01  3.1138E-01   6.6019E+01  0.000E+00  0.000E+00  0.000E+00  1.04492E+03  2.190E+00  1.200E+01  6.000E-02  1.730E+00
   1   10    7     6     2    6.6019E+01  3.1101E-01   6.5708E+01  0.000E+00  0.000E+00  0.000E+00  1.04037E+03  2.184E+00  1.200E+01  6.000E-02  1.728E+00
   1   11    7     6     3    6.5708E+01  3.1064E-01   6.5397E+01  0.000E+00  0.000E+00  0.000E+00  1.03581E+03  2.177E+00  1.200E+01  6.000E-02  1.726E+00
   1   12    7     6     4    6.5397E+01  3.1027E-01   6.5087E+01  0.000E+00  0.000E+00  0.000E+00  1.03126E+03  2.171E+00  1.200E+01  6.000E-02  1.724E+00
   1   13    7     6     5    6.5087E+01  2.1815E-02   6.5065E+01  0.000E+00  0.000E+00  0.000E+00  1.02808E+03  2.168E+00  1.200E+01  2.400E-02  3.030E-01
   1   14    9     7     1    1.5000E+02  1.3359E+00   1.4866E+02  0.000E+00  0.000E+00  0.000E+00  1.03987E+03  2.288E+00  5.529E+01  5.593E-01  7.962E-01
   1   13    8     7     2    1.4866E+02  1.8191E+00   1.4684E+02  0.000E+00  0.000E+00  0.000E+00  1.03478E+03  2.279E+00  5.526E+01  6.148E-01  9.863E-01
   1   13    7     7     3    1.4684E+02  1.4085E+00   1.4544E+02  0.000E+00  0.000E+00  0.000E+00  1.02969E+03  2.271E+00  5.522E+01  5.585E-01  8.407E-01
   1   13    6     8     1    2.1050E+02  1.0122E+00   2.0949E+02  0.000E+00  0.000E+00  0.000E+00  1.02507E+03  3.196E+00  4.634E+01  4.722E-01  7.145E-01
   1   13    5     8     2    2.0949E+02  2.0113E-01   2.0929E+02  0.000E+00  0.000E+00  0.000E+00  1.01882E+03  3.192E+00  4.629E+01  4.717E-01  1.421E-01
   1   13    4     8     3    2.0929E+02 -2.2548E+00   2.1154E+02  0.000E+00  0.000E+00  0.000E+00  1.01257E+03  3.198E+00  4.637E+01  4.725E+00 -1.591E-01
   1   13    3     8     4    2.1154E+02 -3.4081E+00   2.1495E+02  0.000E+00  0.000E+00  0.000E+00  1.00634E+03  3.214E+00  4.660E+01  4.749E+00 -2.392E-01
   1   13    2     8     5    2.1495E+02 -2.5922E+00   2.1754E+02  0.000E+00  0.000E+00  0.000E+00  1.00011E+03  3.231E+00  4.685E+01  4.774E+00 -1.810E-01
   1   13    1     8     6    2.1754E+02 -1.9841E+00   2.1953E+02  0.000E+00  0.000E+00  0.000E+00  9.95119E+02  3.244E+00  4.703E+01  2.876E+00 -2.300E-01
   1    8    6     9     1    0.0000E+00  0.0000E+00   0.0000E+00  0.000E+00  0.000E+00  0.000E+00  1.07875E+03  0.000E+00  4.000E+00  0.000E+00  1.000E+00
   1    8    5     9     2    0.0000E+00  0.0000E+00   0.0000E+00  0.000E+00  0.000E+00  0.000E+00  1.07825E+03  0.000E+00  4.000E+00  0.000E+00  1.000E+00



 UBDSV3 SAVING "           GW ET" ON UNIT  61 AT TIME STEP 10, STRESS PERIOD 7
 UBDSV3 SAVING "    UZF RECHARGE" ON UNIT  61 AT TIME STEP 10, STRESS PERIOD 7
 UBDSV3 SAVING " SURFACE LEAKAGE" ON UNIT  61 AT TIME STEP 10, STRESS PERIOD 7
 UBDSV3 SAVING "       HORT+DUNN" ON UNIT  61 AT TIME STEP 10, STRESS PERIOD 7
 UBDSV3 SAVING "  STORAGE CHANGE" ON UNIT  61 AT TIME STEP 10, STRESS PERIOD 7


UNSATURATED ZONE PACKAGE VOLUMETRIC BUDGET FOR  TIME STEP    10 STRESS PERIOD    7
  ------------------------------------------------------------------------------



     CUMULATIVE VOLUMES      L**3       RATES FOR THIS TIME STEP      L**3/T
     ------------------                 ------------------------

           IN:                                      IN:
           ---                                      ---
        INFILTRATION =    61089456.3220          INFILTRATION =          23.3175

          OUT:                                     OUT:
          ----                                     ----
              UZF ET =    60932188.3332                UZF ET =          23.3175
        UZF RECHARGE =       73224.0000          UZF RECHARGE =       0.0000E+00

            IN - OUT =       84043.9888              IN - OUT =       0.0000E+00

          STORAGE:                                 STORAGE:
          --------                                 --------
      STORAGE CHANGE =       84044.1205        STORAGE CHANGE =       0.0000E+00

 PERCENT DISCREPANCY IS DIFFERENCE BETWEEN IN-OUT MINUS CHANGE IN STORAGE
 DIVIDED BY THE AVERAGE OF IN AND OUT TIMES 100

 PERCENT DISCREPANCY =           0.00     PERCENT DISCREPANCY =           0.00






 

            AG WELLS      PERIOD    7   STEP  10
 AG WELL      1   LAYER   1   ROW     6   COL     4   RATE    -3.74500    
 AG WELL      2   LAYER   1   ROW     6   COL     5   RATE    -3.74500    
 AG WELL      3   LAYER   1   ROW     7   COL     4   RATE    -3.74500    
 AG WELL      4   LAYER   1   ROW     7   COL     5   RATE    -3.74500    
 AG WELL      5   LAYER   1   ROW     8   COL     4   RATE    -3.74500    
 AG WELL      6   LAYER   1   ROW     8   COL     5   RATE    -3.74500    
 
 

   DIVERSION SEGMENTS     PERIOD    7   STEP  10
 SEGMENT      9   RATE     0.00000    
 
 

        SW IRRIGATION     PERIOD    7   STEP  10
 SEGMENT      9   ROW     6   COL     4   RATE     0.00000    
 SEGMENT      9   ROW     6   COL     5   RATE     0.00000    
 SEGMENT      9   ROW     7   COL     4   RATE     0.00000    
 SEGMENT      9   ROW     7   COL     5   RATE     0.00000    
 SEGMENT      9   ROW     8   COL     4   RATE     0.00000    
 SEGMENT      9   ROW     8   COL     5   RATE     0.00000    
 
 

        GW IRRIGATION     PERIOD    7   STEP  10
 AG WELL      1   ROW     6   COL     4   RATE     3.74500    
 AG WELL      2   ROW     6   COL     5   RATE     3.74500    
 AG WELL      3   ROW     7   COL     4   RATE     3.74500    
 AG WELL      4   ROW     7   COL     5   RATE     3.74500    
 AG WELL      5   ROW     8   COL     4   RATE     3.74500    
 AG WELL      6   ROW     8   COL     5   RATE     3.74500    
 
1
  VOLUMETRIC BUDGET FOR AGRICULTURAL FIELDS AT  END OF TIME STEP   10, STRESS PERIOD   7
  ------------------------------------------------------------------------------

     CUMULATIVE VOLUMES      L**3       RATES FOR THIS TIME STEP      L**3/T
     ------------------                 ------------------------

           IN:                                      IN:
           ---                                      ---
               AG WELLS  =    49128648.0000                 AG WELLS  =          22.4700
      DIVERSION SEGMENTS =           0.0000        DIVERSION SEGMENTS =           0.0000
       IRRIGATION PONDS  =           0.0000         IRRIGATION PONDS  =           0.0000
           GW IRRIGATION =           0.0000             GW IRRIGATION =           0.0000
           SW IRRIGATION =           0.0000             SW IRRIGATION =           0.0000
        SYSTEM LOSSES GW =           0.0000          SYSTEM LOSSES GW =           0.0000
        SYSTEM LOSSES SW =           0.0000          SYSTEM LOSSES SW =           0.0000

                TOTAL IN =    49128648.0000                  TOTAL IN =          22.4700

          OUT:                                     OUT:
          ----                                     ----
               AG WELLS  =           0.0000                 AG WELLS  =           0.0000
      DIVERSION SEGMENTS =           0.0000        DIVERSION SEGMENTS =           0.0000
       IRRIGATION PONDS  =           0.0000         IRRIGATION PONDS  =           0.0000
           GW IRRIGATION =    49128648.0000             GW IRRIGATION =          22.4700
           SW IRRIGATION =           0.0000             SW IRRIGATION =           0.0000
        SYSTEM LOSSES GW =           0.0000          SYSTEM LOSSES GW =           0.0000
        SYSTEM LOSSES SW =           0.0000          SYSTEM LOSSES SW =           0.0000

               TOTAL OUT =    49128648.0000                 TOTAL OUT =          22.4700

                IN - OUT =           0.0000                  IN - OUT =           0.0000

     PERCENT DISCREPANCY =           0.00         PERCENT DISCREPANCY =           0.00



1
  VOLUMETRIC BUDGET FOR ENTIRE MODEL AT END OF TIME STEP   10, STRESS PERIOD   7
  ------------------------------------------------------------------------------

     CUMULATIVE VOLUMES      L**3       RATES FOR THIS TIME STEP      L**3/T
     ------------------                 ------------------------

           IN:                                      IN:
           ---                                      ---
             STORAGE     =    55715580.0000               STORAGE     =          22.1764
       CONSTANT HEAD     =           0.0000         CONSTANT HEAD     =           0.0000
     HEAD DEP BOUNDS     =     4032306.5000       HEAD DEP BOUNDS     =           0.2858
      STREAM LEAKAGE     =   172745568.0000        STREAM LEAKAGE     =          12.9620
        UZF RECHARGE     =       73223.9531          UZF RECHARGE     =           0.0000
               GW ET     =           0.0000                 GW ET     =           0.0000
     SURFACE LEAKAGE     =           0.0000       SURFACE LEAKAGE     =           0.0000
           AG WELLS      =           0.0000             AG WELLS      =           0.0000

                TOTAL IN =   232566672.0000                  TOTAL IN =          35.4242

          OUT:                                     OUT:
          ----                                     ----
             STORAGE     =    31263454.0000               STORAGE     =           1.6173
       CONSTANT HEAD     =           0.0000         CONSTANT HEAD     =           0.0000
     HEAD DEP BOUNDS     =     4121590.7500       HEAD DEP BOUNDS     =           0.2967
      STREAM LEAKAGE     =   146172912.0000        STREAM LEAKAGE     =          10.2393
        UZF RECHARGE     =           0.0000          UZF RECHARGE     =           0.0000
               GW ET     =     1881123.8750                 GW ET     =           0.8009
     SURFACE LEAKAGE     =           0.0000       SURFACE LEAKAGE     =           0.0000
           AG WELLS      =    49128648.0000             AG WELLS      =          22.4700

               TOTAL OUT =   232567712.0000                 TOTAL OUT =          35.4242

                IN - OUT =       -1040.0000                  IN - OUT =      -7.2479E-05

     PERCENT DISCREPANCY =          -0.00         PERCENT DISCREPANCY =          -0.00






         TIME SUMMARY AT END OF TIME STEP   10 IN STRESS PERIOD    7
                    SECONDS     MINUTES      HOURS       DAYS        YEARS
                    -----------------------------------------------------------
   TIME STEP LENGTH  87667.      1461.1      24.352      1.0147     2.77799E-03
 STRESS PERIOD TIME 8.76667E+05  14611.      243.52      10.147     2.77799E-02
         TOTAL TIME 1.41131E+07 2.35218E+05  3920.3      163.35     0.44722    
1
 
 SOLVING FOR HEAD 
                                                   Max.-Head-Change                         Max.-Flux-Residual
  Residual-Control   Outer-Iter.   Inner-Iter.     Column Row Layer    Maximum-Head-Change  Column Row Layer    Maximum-Flux-Residual          L2-NORM 
          0                 1           2             4    7     1      -0.5871147979E-01       4    7    1        -0.3077619164E+01      0.6807401016E+01
          0                 2           2             4    7     1       0.5710973455E-02       4    7    1         0.3077584510E+00      0.6807274293E+00
          0                 3           2             4    7     1      -0.3888966342E-03       4    7    1        -0.2154313367E-01      0.4765037802E-01
          0                 4           1             4    7     1       0.1547455888E-04       4    7    1         0.8811152413E-03      0.1948854132E-02

    ------------------------------------------------
       NWT REQUIRED            4 OUTER ITERATIONS 
       AND A TOTAL OF          7 INNER ITERATIONS.
    ------------------------------------------------

 NO OUTPUT CONTROL FOR STRESS PERIOD    7   TIME STEP   11
 
 SOLVING FOR HEAD 
                                                   Max.-Head-Change                         Max.-Flux-Residual
  Residual-Control   Outer-Iter.   Inner-Iter.     Column Row Layer    Maximum-Head-Change  Column Row Layer    Maximum-Flux-Residual          L2-NORM 
          0                 1           2             4    7     1      -0.5818678508E-01       4    7    1        -0.3050610489E+01      0.6727370776E+01
          0                 2           2             4    7     1       0.5659934683E-02       4    7    1         0.3050575605E+00      0.6727264404E+00
          0                 3           2             4    7     1      -0.3854210858E-03       4    7    1        -0.2135407147E-01      0.4709051869E-01
          0                 4           1             4    7     1       0.1533626346E-04       4    7    1         0.8733825875E-03      0.1926012671E-02

    ------------------------------------------------
       NWT REQUIRED            4 OUTER ITERATIONS 
       AND A TOTAL OF          7 INNER ITERATIONS.
    ------------------------------------------------

 NO OUTPUT CONTROL FOR STRESS PERIOD    7   TIME STEP   12
 
 SOLVING FOR HEAD 
                                                   Max.-Head-Change                         Max.-Flux-Residual
  Residual-Control   Outer-Iter.   Inner-Iter.     Column Row Layer    Maximum-Head-Change  Column Row Layer    Maximum-Flux-Residual          L2-NORM 
          0                 1           2             4    7     1      -0.5765841350E-01       4    7    1        -0.3023360316E+01      0.6650283500E+01
          0                 2           2             4    7     1       0.5608538374E-02       4    7    1         0.3023325288E+00      0.6650192325E+00
          0                 3           2             4    7     1      -0.3819211892E-03       4    7    1        -0.2116331928E-01      0.4655109939E-01
          0                 4           1             4    7     1       0.1519699890E-04       4    7    1         0.8655808062E-03      0.1903903819E-02

    ------------------------------------------------
       NWT REQUIRED            4 OUTER ITERATIONS 
       AND A TOTAL OF          7 INNER ITERATIONS.
    ------------------------------------------------

 NO OUTPUT CONTROL FOR STRESS PERIOD    7   TIME STEP   13
 
 SOLVING FOR HEAD 
                                                   Max.-Head-Change                         Max.-Flux-Residual
  Residual-Control   Outer-Iter.   Inner-Iter.     Column Row Layer    Maximum-Head-Change  Column Row Layer    Maximum-Flux-Residual          L2-NORM 
          0                 1           2             4    7     1      -0.5712673958E-01       4    7    1        -0.2995889959E+01      0.6575920803E+01
          0                 2           2             4    7     1       0.5556820954E-02       4    7    1         0.2995854866E+00      0.6575840872E+00
          0                 3           2             4    7     1      -0.3783994251E-03       4    7    1        -0.2097102633E-01      0.4603072422E-01
          0                 4           1             4    7     1       0.1505686489E-04       4    7    1         0.8577160079E-03      0.1882634028E-02

    ------------------------------------------------
       NWT REQUIRED            4 OUTER ITERATIONS 
       AND A TOTAL OF          7 INNER ITERATIONS.
    ------------------------------------------------

 NO OUTPUT CONTROL FOR STRESS PERIOD    7   TIME STEP   14
 
 SOLVING FOR HEAD 
                                                   Max.-Head-Change                         Max.-Flux-Residual
  Residual-Control   Outer-Iter.   Inner-Iter.     Column Row Layer    Maximum-Head-Change  Column Row Layer    Maximum-Flux-Residual          L2-NORM 
          0                 1           2             4    7     1      -0.5659290583E-01       4    7    1        -0.2968263172E+01      0.6504114458E+01
          0                 2           2             4    7     1       0.5504893542E-02       4    7    1         0.2968228085E+00      0.6504042848E+00
          0                 3           2             4    7     1      -0.3748633607E-03       4    7    1        -0.2077763877E-01      0.4552820473E-01
          0                 4           1             4    7     1       0.1491616216E-04       4    7    1         0.8498064765E-03      0.1862101734E-02

    ------------------------------------------------
       NWT REQUIRED            4 OUTER ITERATIONS 
       AND A TOTAL OF          7 INNER ITERATIONS.
    ------------------------------------------------

 OUTPUT CONTROL FOR STRESS PERIOD    7   TIME STEP   15
    PRINT BUDGET
    SAVE BUDGET
 UBDSV1 SAVING "         STORAGE" ON UNIT 102 AT TIME STEP 15, STRESS PERIOD 7
 UBDSV2 SAVING "   CONSTANT HEAD" ON UNIT 102 AT TIME STEP 15, STRESS PERIOD 7
 UBDSV1 SAVING "FLOW RIGHT FACE " ON UNIT 102 AT TIME STEP 15, STRESS PERIOD 7
 UBDSV1 SAVING "FLOW FRONT FACE " ON UNIT 102 AT TIME STEP 15, STRESS PERIOD 7

  HEAD DEP BOUNDS   PERIOD    7   STEP    15
 BOUNDARY      1   LAYER   1   ROW    13   COL     1   RATE   -0.296675    
 BOUNDARY      2   LAYER   1   ROW    14   COL     9   RATE    0.285763    



 STREAM LISTING     PERIOD      7   STEP       15

 LAYER ROW COL. STREAM  RCH.  FLOW INTO     FLOW TO   FLOW OUT OF   OVRLND.     DIRECT     STREAM       STREAM     STREAM     STREAM   STREAMBED  STREAMBED
                SEG.NO.  NO.  STRM. RCH.    AQUIFER    STRM. RCH.    RUNOFF     PRECIP       ET          HEAD       DEPTH      WIDTH   CONDCTNC.   GRADIENT

   1    1    1     1     1    6.2250E+01  3.7978E-01   6.1870E+01  0.000E+00  0.000E+00  0.000E+00  1.09460E+03  1.553E+00  1.854E+01  8.342E-02  1.518E+00
   1    2    2     1     2    6.1870E+01  5.8817E-01   6.1282E+01  0.000E+00  0.000E+00  0.000E+00  1.08961E+03  1.547E+00  1.848E+01  1.294E-01  1.516E+00
   1    3    3     1     3    6.1282E+01  5.0163E-01   6.0781E+01  0.000E+00  0.000E+00  0.000E+00  1.08396E+03  1.540E+00  1.841E+01  1.105E-01  1.513E+00
   1    3    4     1     4    6.0781E+01  4.6194E-01   6.0319E+01  0.000E+00  0.000E+00  0.000E+00  1.07894E+03  1.534E+00  1.836E+01  1.019E-01  1.511E+00
   1    4    5     2     1    5.8319E+01  3.9026E-01   5.7928E+01  0.000E+00  0.000E+00  0.000E+00  1.07394E+03  2.003E+00  1.200E+01  7.800E-02  1.668E+00
   1    5    6     2     2    5.7928E+01  2.9977E-01   5.7629E+01  0.000E+00  0.000E+00  0.000E+00  1.06851E+03  1.996E+00  1.200E+01  6.000E-02  1.665E+00
   1    6    6     2     3    5.7629E+01  2.9940E-01   5.7329E+01  0.000E+00  0.000E+00  0.000E+00  1.06378E+03  1.990E+00  1.200E+01  6.000E-02  1.663E+00
   1    7    6     2     4    5.7329E+01  2.9903E-01   5.7030E+01  0.000E+00  0.000E+00  0.000E+00  1.05906E+03  1.984E+00  1.200E+01  6.000E-02  1.661E+00
   1    8    6     2     5    5.7030E+01  2.9865E-01   5.6732E+01  0.000E+00  0.000E+00  0.000E+00  1.05434E+03  1.978E+00  1.200E+01  6.000E-02  1.659E+00
   1    3    5     3     1    2.0000E+00  2.8252E-01   1.7175E+00  0.000E+00  0.000E+00  0.000E+00  1.07555E+03  1.909E+00  9.636E+00  7.227E-02  1.955E+00
   1    3    6     3     2    1.7175E+00  2.4905E-01   1.4684E+00  0.000E+00  0.000E+00  0.000E+00  1.07264E+03  1.727E+00  8.909E+00  6.682E-02  1.864E+00
   1    3    7     3     3    1.4684E+00  1.9718E-01   1.2712E+00  0.000E+00  0.000E+00  0.000E+00  1.06987E+03  1.555E+00  8.218E+00  5.547E-02  1.777E+00
   1    4    8     3     4    1.2712E+00  2.2567E-01   1.0456E+00  0.000E+00  0.000E+00  0.000E+00  1.06682E+03  1.364E+00  7.455E+00  6.709E-02  1.682E+00
   1    5    8     3     5    1.0456E+00  1.5790E-01   8.8768E-01  0.000E+00  0.000E+00  0.000E+00  1.06362E+03  1.164E+00  6.655E+00  4.991E-02  1.582E+00
   1    6    8     3     6    8.8768E-01  5.5980E-02   8.3170E-01  0.000E+00  0.000E+00  0.000E+00  1.06158E+03  1.036E+00  6.145E+00  1.844E-02  1.518E+00
   1    5   10     4     1    1.0000E+01  9.0919E-02   9.9091E+00  0.000E+00  0.000E+00  0.000E+00  1.07836E+03  6.368E-01  1.000E+01  2.500E-02  1.212E+00
   1    5    9     4     2    9.9091E+00  1.8158E-01   9.7275E+00  0.000E+00  0.000E+00  0.000E+00  1.07154E+03  6.315E-01  1.000E+01  5.000E-02  1.211E+00
   1    6    8     4     3    9.7275E+00  1.2689E-01   9.6006E+00  0.000E+00  0.000E+00  0.000E+00  1.06381E+03  6.256E-01  1.000E+01  3.500E-02  1.209E+00
   1    6    8     5     1    1.0432E+01  2.2686E-01   1.0205E+01  0.000E+00  0.000E+00  0.000E+00  1.05868E+03  6.790E-01  1.542E+01  6.166E-02  1.226E+00
   1    7    7     5     2    1.0205E+01  2.7894E-01   9.9265E+00  0.000E+00  0.000E+00  0.000E+00  1.05417E+03  6.732E-01  1.519E+01  7.594E-02  1.224E+00
   1    8    7     5     3    9.9265E+00  1.9221E-01   9.7343E+00  0.000E+00  0.000E+00  0.000E+00  1.04992E+03  6.676E-01  1.497E+01  5.241E-02  1.223E+00
   1    8    6     5     4    9.7343E+00  1.3577E-01   9.5985E+00  0.000E+00  0.000E+00  0.000E+00  1.04691E+03  6.637E-01  1.482E+01  3.706E-02  1.221E+00
   1    9    6     6     1    6.6330E+01  3.1138E-01   6.6019E+01  0.000E+00  0.000E+00  0.000E+00  1.04492E+03  2.190E+00  1.200E+01  6.000E-02  1.730E+00
   1   10    7     6     2    6.6019E+01  3.1101E-01   6.5708E+01  0.000E+00  0.000E+00  0.000E+00  1.04037E+03  2.184E+00  1.200E+01  6.000E-02  1.728E+00
   1   11    7     6     3    6.5708E+01  3.1064E-01   6.5397E+01  0.000E+00  0.000E+00  0.000E+00  1.03581E+03  2.177E+00  1.200E+01  6.000E-02  1.726E+00
   1   12    7     6     4    6.5397E+01  3.1027E-01   6.5087E+01  0.000E+00  0.000E+00  0.000E+00  1.03126E+03  2.171E+00  1.200E+01  6.000E-02  1.724E+00
   1   13    7     6     5    6.5087E+01  2.1746E-02   6.5065E+01  0.000E+00  0.000E+00  0.000E+00  1.02808E+03  2.168E+00  1.200E+01  2.400E-02  3.020E-01
   1   14    9     7     1    1.5000E+02  1.3359E+00   1.4866E+02  0.000E+00  0.000E+00  0.000E+00  1.03987E+03  2.288E+00  5.529E+01  5.593E-01  7.962E-01
   1   13    8     7     2    1.4866E+02  1.8185E+00   1.4685E+02  0.000E+00  0.000E+00  0.000E+00  1.03478E+03  2.279E+00  5.526E+01  6.148E-01  9.860E-01
   1   13    7     7     3    1.4685E+02  1.4069E+00   1.4544E+02  0.000E+00  0.000E+00  0.000E+00  1.02969E+03  2.271E+00  5.522E+01  5.585E-01  8.398E-01
   1   13    6     8     1    2.1050E+02  1.0107E+00   2.0949E+02  0.000E+00  0.000E+00  0.000E+00  1.02507E+03  3.196E+00  4.634E+01  4.722E-01  7.135E-01
   1   13    5     8     2    2.0949E+02  2.0038E-01   2.0929E+02  0.000E+00  0.000E+00  0.000E+00  1.01882E+03  3.192E+00  4.629E+01  4.717E-01  1.416E-01
   1   13    4     8     3    2.0929E+02 -2.2376E+00   2.1153E+02  0.000E+00  0.000E+00  0.000E+00  1.01257E+03  3.198E+00  4.637E+01  4.725E+00 -1.578E-01
   1   13    3     8     4    2.1153E+02 -3.3879E+00   2.1492E+02  0.000E+00  0.000E+00  0.000E+00  1.00634E+03  3.214E+00  4.660E+01  4.749E+00 -2.378E-01
   1   13    2     8     5    2.1492E+02 -2.5677E+00   2.1749E+02  0.000E+00  0.000E+00  0.000E+00  1.00011E+03  3.231E+00  4.685E+01  4.774E+00 -1.793E-01
   1   13    1     8     6    2.1749E+02 -1.9807E+00   2.1947E+02  0.000E+00  0.000E+00  0.000E+00  9.95118E+02  3.243E+00  4.703E+01  2.875E+00 -2.296E-01
   1    8    6     9     1    0.0000E+00  0.0000E+00   0.0000E+00  0.000E+00  0.000E+00  0.000E+00  1.07875E+03  0.000E+00  4.000E+00  0.000E+00  1.000E+00
   1    8    5     9     2    0.0000E+00  0.0000E+00   0.0000E+00  0.000E+00  0.000E+00  0.000E+00  1.07825E+03  0.000E+00  4.000E+00  0.000E+00  1.000E+00



 UBDSV3 SAVING "           GW ET" ON UNIT  61 AT TIME STEP 15, STRESS PERIOD 7
 UBDSV3 SAVING "    UZF RECHARGE" ON UNIT  61 AT TIME STEP 15, STRESS PERIOD 7
 UBDSV3 SAVING " SURFACE LEAKAGE" ON UNIT  61 AT TIME STEP 15, STRESS PERIOD 7
 UBDSV3 SAVING "       HORT+DUNN" ON UNIT  61 AT TIME STEP 15, STRESS PERIOD 7
 UBDSV3 SAVING "  STORAGE CHANGE" ON UNIT  61 AT TIME STEP 15, STRESS PERIOD 7


UNSATURATED ZONE PACKAGE VOLUMETRIC BUDGET FOR  TIME STEP    15 STRESS PERIOD    7
  ------------------------------------------------------------------------------



     CUMULATIVE VOLUMES      L**3       RATES FOR THIS TIME STEP      L**3/T
     ------------------                 ------------------------

           IN:                                      IN:
           ---                                      ---
        INFILTRATION =    71310293.8014          INFILTRATION =          23.3175

          OUT:                                     OUT:
          ----                                     ----
              UZF ET =    71153025.8126                UZF ET =          23.3175
        UZF RECHARGE =       73224.0000          UZF RECHARGE =       0.0000E+00

            IN - OUT =       84043.9888              IN - OUT =       0.0000E+00

          STORAGE:                                 STORAGE:
          --------                                 --------
      STORAGE CHANGE =       84044.1205        STORAGE CHANGE =      -4.1498E-17

 PERCENT DISCREPANCY IS DIFFERENCE BETWEEN IN-OUT MINUS CHANGE IN STORAGE
 DIVIDED BY THE AVERAGE OF IN AND OUT TIMES 100

 PERCENT DISCREPANCY =           0.00     PERCENT DISCREPANCY =           0.00






 

            AG WELLS      PERIOD    7   STEP  15
 AG WELL      1   LAYER   1   ROW     6   COL     4   RATE    -3.74500    
 AG WELL      2   LAYER   1   ROW     6   COL     5   RATE    -3.74500    
 AG WELL      3   LAYER   1   ROW     7   COL     4   RATE    -3.74500    
 AG WELL      4   LAYER   1   ROW     7   COL     5   RATE    -3.74500    
 AG WELL      5   LAYER   1   ROW     8   COL     4   RATE    -3.74500    
 AG WELL      6   LAYER   1   ROW     8   COL     5   RATE    -3.74500    
 
 

   DIVERSION SEGMENTS     PERIOD    7   STEP  15
 SEGMENT      9   RATE     0.00000    
 
 

        SW IRRIGATION     PERIOD    7   STEP  15
 SEGMENT      9   ROW     6   COL     4   RATE     0.00000    
 SEGMENT      9   ROW     6   COL     5   RATE     0.00000    
 SEGMENT      9   ROW     7   COL     4   RATE     0.00000    
 SEGMENT      9   ROW     7   COL     5   RATE     0.00000    
 SEGMENT      9   ROW     8   COL     4   RATE     0.00000    
 SEGMENT      9   ROW     8   COL     5   RATE     0.00000    
 
 

        GW IRRIGATION     PERIOD    7   STEP  15
 AG WELL      1   ROW     6   COL     4   RATE     3.74500    
 AG WELL      2   ROW     6   COL     5   RATE     3.74500    
 AG WELL      3   ROW     7   COL     4   RATE     3.74500    
 AG WELL      4   ROW     7   COL     5   RATE     3.74500    
 AG WELL      5   ROW     8   COL     4   RATE     3.74500    
 AG WELL      6   ROW     8   COL     5   RATE     3.74500    
 
1
  VOLUMETRIC BUDGET FOR AGRICULTURAL FIELDS AT  END OF TIME STEP   15, STRESS PERIOD   7
  ------------------------------------------------------------------------------

     CUMULATIVE VOLUMES      L**3       RATES FOR THIS TIME STEP      L**3/T
     ------------------                 ------------------------

           IN:                                      IN:
           ---                                      ---
               AG WELLS  =    58978008.0000                 AG WELLS  =          22.4700
      DIVERSION SEGMENTS =           0.0000        DIVERSION SEGMENTS =           0.0000
       IRRIGATION PONDS  =           0.0000         IRRIGATION PONDS  =           0.0000
           GW IRRIGATION =           0.0000             GW IRRIGATION =           0.0000
           SW IRRIGATION =           0.0000             SW IRRIGATION =           0.0000
        SYSTEM LOSSES GW =           0.0000          SYSTEM LOSSES GW =           0.0000
        SYSTEM LOSSES SW =           0.0000          SYSTEM LOSSES SW =           0.0000

                TOTAL IN =    58978008.0000                  TOTAL IN =          22.4700

          OUT:                                     OUT:
          ----                                     ----
               AG WELLS  =           0.0000                 AG WELLS  =           0.0000
      DIVERSION SEGMENTS =           0.0000        DIVERSION SEGMENTS =           0.0000
       IRRIGATION PONDS  =           0.0000         IRRIGATION PONDS  =           0.0000
           GW IRRIGATION =    58978008.0000             GW IRRIGATION =          22.4700
           SW IRRIGATION =           0.0000             SW IRRIGATION =           0.0000
        SYSTEM LOSSES GW =           0.0000          SYSTEM LOSSES GW =           0.0000
        SYSTEM LOSSES SW =           0.0000          SYSTEM LOSSES SW =           0.0000

               TOTAL OUT =    58978008.0000                 TOTAL OUT =          22.4700

                IN - OUT =           0.0000                  IN - OUT =           0.0000

     PERCENT DISCREPANCY =           0.00         PERCENT DISCREPANCY =           0.00



1
  VOLUMETRIC BUDGET FOR ENTIRE MODEL AT END OF TIME STEP   15, STRESS PERIOD   7
  ------------------------------------------------------------------------------

     CUMULATIVE VOLUMES      L**3       RATES FOR THIS TIME STEP      L**3/T
     ------------------                 ------------------------

           IN:                                      IN:
           ---                                      ---
             STORAGE     =    65385060.0000               STORAGE     =          21.9988
       CONSTANT HEAD     =           0.0000         CONSTANT HEAD     =           0.0000
     HEAD DEP BOUNDS     =     4157566.5000       HEAD DEP BOUNDS     =           0.2858
      STREAM LEAKAGE     =   178426048.0000        STREAM LEAKAGE     =          12.9575
        UZF RECHARGE     =       73223.9531          UZF RECHARGE     =           0.0000
               GW ET     =           0.0000                 GW ET     =           0.0000
     SURFACE LEAKAGE     =           0.0000       SURFACE LEAKAGE     =           0.0000
           AG WELLS      =           0.0000             AG WELLS      =           0.0000

                TOTAL IN =   248041888.0000                  TOTAL IN =          35.2421

          OUT:                                     OUT:
          ----                                     ----
             STORAGE     =    31956948.0000               STORAGE     =           1.5607
       CONSTANT HEAD     =           0.0000         CONSTANT HEAD     =           0.0000
     HEAD DEP BOUNDS     =     4251642.5000       HEAD DEP BOUNDS     =           0.2967
      STREAM LEAKAGE     =   150642240.0000        STREAM LEAKAGE     =          10.1739
        UZF RECHARGE     =           0.0000          UZF RECHARGE     =           0.0000
               GW ET     =     2214176.2500                 GW ET     =           0.7408
     SURFACE LEAKAGE     =           0.0000       SURFACE LEAKAGE     =           0.0000
           AG WELLS      =    58978008.0000             AG WELLS      =          22.4700

               TOTAL OUT =   248043008.0000                 TOTAL OUT =          35.2421

                IN - OUT =       -1120.0000                  IN - OUT =      -6.8665E-05

     PERCENT DISCREPANCY =          -0.00         PERCENT DISCREPANCY =          -0.00






         TIME SUMMARY AT END OF TIME STEP   15 IN STRESS PERIOD    7
                    SECONDS     MINUTES      HOURS       DAYS        YEARS
                    -----------------------------------------------------------
   TIME STEP LENGTH  87667.      1461.1      24.352      1.0147     2.77799E-03
 STRESS PERIOD TIME 1.31500E+06  21917.      365.28      15.220     4.16698E-02
         TOTAL TIME 1.45514E+07 2.42524E+05  4042.1      168.42     0.46111    
1
 
 SOLVING FOR HEAD 
                                                   Max.-Head-Change                         Max.-Flux-Residual
  Residual-Control   Outer-Iter.   Inner-Iter.     Column Row Layer    Maximum-Head-Change  Column Row Layer    Maximum-Flux-Residual          L2-NORM 
          0                 1           2             4    7     1      -0.5605797153E-01       4    7    1        -0.2940539187E+01      0.6434691153E+01
          0                 2           2             4    7     1       0.5452859168E-02       4    7    1         0.2940504168E+00      0.6434626269E+00
          0                 3           2             4    7     1      -0.3713200113E-03       4    7    1        -0.2058357120E-01      0.4504231085E-01
          0                 4           1             4    7     1       0.1477516884E-04       4    7    1         0.8418690975E-03      0.1842220291E-02

    ------------------------------------------------
       NWT REQUIRED            4 OUTER ITERATIONS 
       AND A TOTAL OF          7 INNER ITERATIONS.
    ------------------------------------------------

 NO OUTPUT CONTROL FOR STRESS PERIOD    7   TIME STEP   16
 
 SOLVING FOR HEAD 
                                                   Max.-Head-Change                         Max.-Flux-Residual
  Residual-Control   Outer-Iter.   Inner-Iter.     Column Row Layer    Maximum-Head-Change  Column Row Layer    Maximum-Flux-Residual          L2-NORM 
          0                 1           2             4    7     1      -0.5552211806E-01       4    7    1        -0.2912728612E+01      0.6367521784E+01
          0                 2           2             4    7     1       0.5400735468E-02       4    7    1         0.2912693720E+00      0.6367462119E+00
          0                 3           2             4    7     1      -0.3677705778E-03       4    7    1        -0.2038889785E-01      0.4457220309E-01
          0                 4           1             4    7     1       0.1463393329E-04       4    7    1         0.8339069336E-03      0.1822996450E-02

    ------------------------------------------------
       NWT REQUIRED            4 OUTER ITERATIONS 
       AND A TOTAL OF          7 INNER ITERATIONS.
    ------------------------------------------------

 NO OUTPUT CONTROL FOR STRESS PERIOD    7   TIME STEP   17
 
 SOLVING FOR HEAD 
                                                   Max.-Head-Change                         Max.-Flux-Residual
  Residual-Control   Outer-Iter.   Inner-Iter.     Column Row Layer    Maximum-Head-Change  Column Row Layer    Maximum-Flux-Residual          L2-NORM 
          0                 1           2             4    7     1      -0.5498657981E-01       4    7    1        -0.2884899935E+01      0.6302487098E+01
          0                 2           2             4    7     1       0.5348642503E-02       4    7    1         0.2884865221E+00      0.6302431589E+00
          0                 3           2             4    7     1      -0.3642232371E-03       4    7    1        -0.2019409812E-01      0.4411701636E-01
          0                 4           1             4    7     1       0.1449278110E-04       4    7    1         0.8259395963E-03      0.1804384556E-02

    ------------------------------------------------
       NWT REQUIRED            4 OUTER ITERATIONS 
       AND A TOTAL OF          7 INNER ITERATIONS.
    ------------------------------------------------

 NO OUTPUT CONTROL FOR STRESS PERIOD    7   TIME STEP   18
 
 SOLVING FOR HEAD 
                                                   Max.-Head-Change                         Max.-Flux-Residual
  Residual-Control   Outer-Iter.   Inner-Iter.     Column Row Layer    Maximum-Head-Change  Column Row Layer    Maximum-Flux-Residual          L2-NORM 
          0                 1           2             4    7     1      -0.5445141213E-01       4    7    1        -0.2857058082E+01      0.6239441411E+01
          0                 2           2             4    7     1       0.5296585651E-02       4    7    1         0.2857023593E+00      0.6239389180E+00
          0                 3           2             4    7     1      -0.3606783548E-03       4    7    1        -0.1999920642E-01      0.4367573540E-01
          0                 4           1             4    7     1       0.1435172722E-04       4    7    1         0.8179685228E-03      0.1786333043E-02

    ------------------------------------------------
       NWT REQUIRED            4 OUTER ITERATIONS 
       AND A TOTAL OF          7 INNER ITERATIONS.
    ------------------------------------------------

 NO OUTPUT CONTROL FOR STRESS PERIOD    7   TIME STEP   19
 
 SOLVING FOR HEAD 
                                                   Max.-Head-Change                         Max.-Flux-Residual
  Residual-Control   Outer-Iter.   Inner-Iter.     Column Row Layer    Maximum-Head-Change  Column Row Layer    Maximum-Flux-Residual          L2-NORM 
          0                 1           2             4    7     1      -0.5391774970E-01       4    7    1        -0.2829264993E+01      0.6178311166E+01
          0                 2           2             4    7     1       0.5244675278E-02       4    7    1         0.2829230770E+00      0.6178261781E+00
          0                 3           2             4    7     1      -0.3571434464E-03       4    7    1        -0.1980465632E-01      0.4324785819E-01
          0                 4           1             4    7     1       0.1421106962E-04       4    7    1         0.8100113976E-03      0.1768840052E-02

    ------------------------------------------------
       NWT REQUIRED            4 OUTER ITERATIONS 
       AND A TOTAL OF          7 INNER ITERATIONS.
    ------------------------------------------------

 NO OUTPUT CONTROL FOR STRESS PERIOD    7   TIME STEP   20
 
 SOLVING FOR HEAD 
                                                   Max.-Head-Change                         Max.-Flux-Residual
  Residual-Control   Outer-Iter.   Inner-Iter.     Column Row Layer    Maximum-Head-Change  Column Row Layer    Maximum-Flux-Residual          L2-NORM 
          0                 1           2             4    7     1      -0.5338555618E-01       4    7    1        -0.2801520438E+01      0.6118974024E+01
          0                 2           2             4    7     1       0.5192907842E-02       4    7    1         0.2801486519E+00      0.6118927029E+00
          0                 3           2             4    7     1      -0.3536182718E-03       4    7    1        -0.1961044619E-01      0.4283251433E-01
          0                 4           1             4    7     1       0.1407080022E-04       4    7    1         0.8020682433E-03      0.1751845311E-02

    ------------------------------------------------
       NWT REQUIRED            4 OUTER ITERATIONS 
       AND A TOTAL OF          7 INNER ITERATIONS.
    ------------------------------------------------

 NO OUTPUT CONTROL FOR STRESS PERIOD    7   TIME STEP   21
 
 SOLVING FOR HEAD 
                                                   Max.-Head-Change                         Max.-Flux-Residual
  Residual-Control   Outer-Iter.   Inner-Iter.     Column Row Layer    Maximum-Head-Change  Column Row Layer    Maximum-Flux-Residual          L2-NORM 
          0                 1           2             4    7     1      -0.5285586194E-01       4    7    1        -0.2773881589E+01      0.6061355776E+01
          0                 2           2             4    7     1       0.5141383564E-02       4    7    1         0.2773848004E+00      0.6061310854E+00
          0                 3           2             4    7     1      -0.3501096545E-03       4    7    1        -0.1941697620E-01      0.4242921960E-01
          0                 4           1             4    7     1       0.1393118889E-04       4    7    1         0.7941552917E-03      0.1735357311E-02

    ------------------------------------------------
       NWT REQUIRED            4 OUTER ITERATIONS 
       AND A TOTAL OF          7 INNER ITERATIONS.
    ------------------------------------------------

 NO OUTPUT CONTROL FOR STRESS PERIOD    7   TIME STEP   22
 
 SOLVING FOR HEAD 
                                                   Max.-Head-Change                         Max.-Flux-Residual
  Residual-Control   Outer-Iter.   Inner-Iter.     Column Row Layer    Maximum-Head-Change  Column Row Layer    Maximum-Flux-Residual          L2-NORM 
          0                 1           2             4    7     1      -0.5232881971E-01       4    7    1        -0.2746357580E+01      0.6005369190E+01
          0                 2           2             4    7     1       0.5090117294E-02       4    7    1         0.2746324358E+00      0.6005326064E+00
          0                 3           2             4    7     1      -0.3466186056E-03       4    7    1        -0.1922431025E-01      0.4203732254E-01
          0                 4           1             4    7     1       0.1379227662E-04       4    7    1         0.7862752357E-03      0.1719323499E-02

    ------------------------------------------------
       NWT REQUIRED            4 OUTER ITERATIONS 
       AND A TOTAL OF          7 INNER ITERATIONS.
    ------------------------------------------------

 NO OUTPUT CONTROL FOR STRESS PERIOD    7   TIME STEP   23
 
 SOLVING FOR HEAD 
                                                   Max.-Head-Change                         Max.-Flux-Residual
  Residual-Control   Outer-Iter.   Inner-Iter.     Column Row Layer    Maximum-Head-Change  Column Row Layer    Maximum-Flux-Residual          L2-NORM 
          0                 1           2             4    7     1      -0.5180468941E-01       4    7    1        -0.2718963715E+01      0.5950932090E+01
          0                 2           2             4    7     1       0.5039134397E-02       4    7    1         0.2718930882E+00      0.5950892008E+00
          0                 3           2             4    7     1      -0.3431468498E-03       4    7    1        -0.1903255547E-01      0.4165628319E-01
          0                 4           1             4    7     1       0.1365413225E-04       4    7    1         0.7784324503E-03      0.1703739861E-02

    ------------------------------------------------
       NWT REQUIRED            4 OUTER ITERATIONS 
       AND A TOTAL OF          7 INNER ITERATIONS.
    ------------------------------------------------

 NO OUTPUT CONTROL FOR STRESS PERIOD    7   TIME STEP   24
 
 SOLVING FOR HEAD 
                                                   Max.-Head-Change                         Max.-Flux-Residual
  Residual-Control   Outer-Iter.   Inner-Iter.     Column Row Layer    Maximum-Head-Change  Column Row Layer    Maximum-Flux-Residual          L2-NORM 
          0                 1           2             4    7     1      -0.5128397111E-01       4    7    1        -0.2691728224E+01      0.5897980855E+01
          0                 2           2             4    7     1       0.4988483634E-02       4    7    1         0.2691695800E+00      0.5898237300E+00
          0                 3           2             4    7     1      -0.3396977334E-03       4    7    1        -0.1884190941E-01      0.4128623501E-01
          0                 4           1             4    7     1       0.1351690741E-04       4    7    1         0.7706350259E-03      0.1689234662E-02

    ------------------------------------------------
       NWT REQUIRED            4 OUTER ITERATIONS 
       AND A TOTAL OF          7 INNER ITERATIONS.
    ------------------------------------------------

 NO OUTPUT CONTROL FOR STRESS PERIOD    7   TIME STEP   25
 
 SOLVING FOR HEAD 
                                                   Max.-Head-Change                         Max.-Flux-Residual
  Residual-Control   Outer-Iter.   Inner-Iter.     Column Row Layer    Maximum-Head-Change  Column Row Layer    Maximum-Flux-Residual          L2-NORM 
          0                 1           2             4    7     1      -0.5076711551E-01       4    7    1        -0.2664677027E+01      0.5846445255E+01
          0                 2           2             4    7     1       0.4938208308E-02       4    7    1         0.2664645030E+00      0.5846413414E+00
          0                 3           2             4    7     1      -0.3362741449E-03       4    7    1        -0.1865255355E-01      0.4092493753E-01
          0                 4           1             4    7     1       0.1338066126E-04       4    7    1         0.7628903652E-03      0.1673838071E-02

    ------------------------------------------------
       NWT REQUIRED            4 OUTER ITERATIONS 
       AND A TOTAL OF          7 INNER ITERATIONS.
    ------------------------------------------------

 NO OUTPUT CONTROL FOR STRESS PERIOD    7   TIME STEP   26
 
 SOLVING FOR HEAD 
                                                   Max.-Head-Change                         Max.-Flux-Residual
  Residual-Control   Outer-Iter.   Inner-Iter.     Column Row Layer    Maximum-Head-Change  Column Row Layer    Maximum-Flux-Residual          L2-NORM 
          0                 1           2             4    7     1      -0.5025426323E-01       4    7    1        -0.2637818765E+01      0.5796002427E+01
          0                 2           2             4    7     1       0.4888322429E-02       4    7    1         0.2637787212E+00      0.5795971379E+00
          0                 3           2             4    7     1      -0.3328770950E-03       4    7    1        -0.1846454832E-01      0.4057183958E-01
          0                 4           1             4    7     1       0.1324548925E-04       4    7    1         0.7552009383E-03      0.1659388771E-02

    ------------------------------------------------
       NWT REQUIRED            4 OUTER ITERATIONS 
       AND A TOTAL OF          7 INNER ITERATIONS.
    ------------------------------------------------

 NO OUTPUT CONTROL FOR STRESS PERIOD    7   TIME STEP   27
 
 SOLVING FOR HEAD 
                                                   Max.-Head-Change                         Max.-Flux-Residual
  Residual-Control   Outer-Iter.   Inner-Iter.     Column Row Layer    Maximum-Head-Change  Column Row Layer    Maximum-Flux-Residual          L2-NORM 
          0                 1           2             4    7     1      -0.4974580159E-01       4    7    1        -0.2611175465E+01      0.5746874452E+01
          0                 2           2             4    7     1       0.4838863658E-02       4    7    1         0.2611144368E+00      0.5746844170E+00
          0                 3           2             4    7     1      -0.3295091295E-03       4    7    1        -0.1827804790E-01      0.4022794905E-01
          0                 4           1             4    7     1       0.1311147474E-04       4    7    1         0.7475730661E-03      0.1645323952E-02

    ------------------------------------------------
       NWT REQUIRED            4 OUTER ITERATIONS 
       AND A TOTAL OF          7 INNER ITERATIONS.
    ------------------------------------------------

 NO OUTPUT CONTROL FOR STRESS PERIOD    7   TIME STEP   28
 
 SOLVING FOR HEAD 
                                                   Max.-Head-Change                         Max.-Flux-Residual
  Residual-Control   Outer-Iter.   Inner-Iter.     Column Row Layer    Maximum-Head-Change  Column Row Layer    Maximum-Flux-Residual          L2-NORM 
          0                 1           2             4    7     1      -0.4924181792E-01       4    7    1        -0.2584752458E+01      0.5699005218E+01
          0                 2           2             4    7     1       0.4789840487E-02       4    7    1         0.2584721828E+00      0.5698975670E+00
          0                 3           2             4    7     1      -0.3261708265E-03       4    7    1        -0.1809308960E-01      0.3989287113E-01
          0                 4           1             4    7     1       0.1297864063E-04       4    7    1         0.7400082634E-03      0.1631620255E-02

    ------------------------------------------------
       NWT REQUIRED            4 OUTER ITERATIONS 
       AND A TOTAL OF          7 INNER ITERATIONS.
    ------------------------------------------------

 NO OUTPUT CONTROL FOR STRESS PERIOD    7   TIME STEP   29
 
 SOLVING FOR HEAD 
                                                   Max.-Head-Change                         Max.-Flux-Residual
  Residual-Control   Outer-Iter.   Inner-Iter.     Column Row Layer    Maximum-Head-Change  Column Row Layer    Maximum-Flux-Residual          L2-NORM 
          0                 1           2             4    7     1      -0.4874254534E-01       4    7    1        -0.2558561648E+01      0.5655659955E+01
          0                 2           2             4    7     1       0.4741275590E-02       4    7    1         0.2558531494E+00      0.5655486575E+00
          0                 3           2             4    7     1      -0.3228637299E-03       4    7    1        -0.1790975672E-01      0.3958713458E-01
          0                 4           1             4    7     1       0.1284704817E-04       4    7    1         0.7325099336E-03      0.1619025028E-02

    ------------------------------------------------
       NWT REQUIRED            4 OUTER ITERATIONS 
       AND A TOTAL OF          7 INNER ITERATIONS.
    ------------------------------------------------

 NO OUTPUT CONTROL FOR STRESS PERIOD    7   TIME STEP   30



 STREAM LISTING     PERIOD      7   STEP       30

 LAYER ROW COL. STREAM  RCH.  FLOW INTO     FLOW TO   FLOW OUT OF   OVRLND.     DIRECT     STREAM       STREAM     STREAM     STREAM   STREAMBED  STREAMBED
                SEG.NO.  NO.  STRM. RCH.    AQUIFER    STRM. RCH.    RUNOFF     PRECIP       ET          HEAD       DEPTH      WIDTH   CONDCTNC.   GRADIENT

   1    1    1     1     1    5.7704E+01  3.6391E-01   5.7340E+01  0.000E+00  0.000E+00  0.000E+00  1.09454E+03  1.497E+00  1.798E+01  8.092E-02  1.499E+00
   1    2    2     1     2    5.7340E+01  5.6353E-01   5.6777E+01  0.000E+00  0.000E+00  0.000E+00  1.08955E+03  1.491E+00  1.792E+01  1.255E-01  1.497E+00
   1    3    3     1     3    5.6777E+01  4.8055E-01   5.6296E+01  0.000E+00  0.000E+00  0.000E+00  1.08390E+03  1.485E+00  1.786E+01  1.071E-01  1.495E+00
   1    3    4     1     4    5.6296E+01  4.4247E-01   5.5854E+01  0.000E+00  0.000E+00  0.000E+00  1.07889E+03  1.479E+00  1.780E+01  9.879E-02  1.493E+00
   1    4    5     2     1    5.3854E+01  3.8295E-01   5.3471E+01  0.000E+00  0.000E+00  0.000E+00  1.07384E+03  1.910E+00  1.200E+01  7.800E-02  1.637E+00
   1    5    6     2     2    5.3471E+01  2.9414E-01   5.3177E+01  0.000E+00  0.000E+00  0.000E+00  1.06841E+03  1.902E+00  1.200E+01  6.000E-02  1.634E+00
   1    6    6     2     3    5.3177E+01  2.9376E-01   5.2883E+01  0.000E+00  0.000E+00  0.000E+00  1.06369E+03  1.896E+00  1.200E+01  6.000E-02  1.632E+00
   1    7    6     2     4    5.2883E+01  2.9339E-01   5.2590E+01  0.000E+00  0.000E+00  0.000E+00  1.05897E+03  1.890E+00  1.200E+01  6.000E-02  1.630E+00
   1    8    6     2     5    5.2590E+01  2.9301E-01   5.2297E+01  0.000E+00  0.000E+00  0.000E+00  1.05424E+03  1.883E+00  1.200E+01  6.000E-02  1.628E+00
   1    3    5     3     1    2.0000E+00  2.8252E-01   1.7175E+00  0.000E+00  0.000E+00  0.000E+00  1.07555E+03  1.909E+00  9.636E+00  7.227E-02  1.955E+00
   1    3    6     3     2    1.7175E+00  2.4905E-01   1.4684E+00  0.000E+00  0.000E+00  0.000E+00  1.07264E+03  1.727E+00  8.909E+00  6.682E-02  1.864E+00
   1    3    7     3     3    1.4684E+00  1.9718E-01   1.2712E+00  0.000E+00  0.000E+00  0.000E+00  1.06987E+03  1.555E+00  8.218E+00  5.547E-02  1.777E+00
   1    4    8     3     4    1.2712E+00  2.2567E-01   1.0456E+00  0.000E+00  0.000E+00  0.000E+00  1.06682E+03  1.364E+00  7.455E+00  6.709E-02  1.682E+00
   1    5    8     3     5    1.0456E+00  1.5790E-01   8.8768E-01  0.000E+00  0.000E+00  0.000E+00  1.06362E+03  1.164E+00  6.655E+00  4.991E-02  1.582E+00
   1    6    8     3     6    8.8768E-01  5.5980E-02   8.3170E-01  0.000E+00  0.000E+00  0.000E+00  1.06158E+03  1.036E+00  6.145E+00  1.844E-02  1.518E+00
   1    5   10     4     1    1.0000E+01  9.0919E-02   9.9091E+00  0.000E+00  0.000E+00  0.000E+00  1.07836E+03  6.368E-01  1.000E+01  2.500E-02  1.212E+00
   1    5    9     4     2    9.9091E+00  1.8158E-01   9.7275E+00  0.000E+00  0.000E+00  0.000E+00  1.07154E+03  6.315E-01  1.000E+01  5.000E-02  1.211E+00
   1    6    8     4     3    9.7275E+00  1.2689E-01   9.6006E+00  0.000E+00  0.000E+00  0.000E+00  1.06381E+03  6.256E-01  1.000E+01  3.500E-02  1.209E+00
   1    6    8     5     1    1.0432E+01  2.2686E-01   1.0205E+01  0.000E+00  0.000E+00  0.000E+00  1.05868E+03  6.790E-01  1.542E+01  6.166E-02  1.226E+00
   1    7    7     5     2    1.0205E+01  2.7894E-01   9.9265E+00  0.000E+00  0.000E+00  0.000E+00  1.05417E+03  6.732E-01  1.519E+01  7.594E-02  1.224E+00
   1    8    7     5     3    9.9265E+00  1.9221E-01   9.7343E+00  0.000E+00  0.000E+00  0.000E+00  1.04992E+03  6.676E-01  1.497E+01  5.241E-02  1.223E+00
   1    8    6     5     4    9.7343E+00  1.3577E-01   9.5985E+00  0.000E+00  0.000E+00  0.000E+00  1.04691E+03  6.637E-01  1.482E+01  3.706E-02  1.221E+00
   1    9    6     6     1    6.1895E+01  3.0603E-01   6.1589E+01  0.000E+00  0.000E+00  0.000E+00  1.04483E+03  2.100E+00  1.200E+01  6.000E-02  1.700E+00
   1   10    7     6     2    6.1589E+01  3.0565E-01   6.1283E+01  0.000E+00  0.000E+00  0.000E+00  1.04028E+03  2.094E+00  1.200E+01  6.000E-02  1.698E+00
   1   11    7     6     3    6.1283E+01  3.0528E-01   6.0978E+01  0.000E+00  0.000E+00  0.000E+00  1.03572E+03  2.088E+00  1.200E+01  6.000E-02  1.696E+00
   1   12    7     6     4    6.0978E+01  3.0490E-01   6.0673E+01  0.000E+00  0.000E+00  0.000E+00  1.03117E+03  2.082E+00  1.200E+01  6.000E-02  1.694E+00
   1   13    7     6     5    6.0673E+01  1.9419E-02   6.0654E+01  0.000E+00  0.000E+00  0.000E+00  1.02799E+03  2.078E+00  1.200E+01  2.400E-02  2.697E-01
   1   14    9     7     1    1.5000E+02  1.3359E+00   1.4866E+02  0.000E+00  0.000E+00  0.000E+00  1.03987E+03  2.288E+00  5.529E+01  5.593E-01  7.961E-01
   1   13    8     7     2    1.4866E+02  1.8167E+00   1.4685E+02  0.000E+00  0.000E+00  0.000E+00  1.03478E+03  2.279E+00  5.526E+01  6.148E-01  9.850E-01
   1   13    7     7     3    1.4685E+02  1.4027E+00   1.4544E+02  0.000E+00  0.000E+00  0.000E+00  1.02969E+03  2.271E+00  5.522E+01  5.585E-01  8.372E-01
   1   13    6     8     1    2.0610E+02  9.8707E-01   2.0511E+02  0.000E+00  0.000E+00  0.000E+00  1.02505E+03  3.170E+00  4.597E+01  4.685E-01  7.024E-01
   1   13    5     8     2    2.0511E+02  1.8504E-01   2.0493E+02  0.000E+00  0.000E+00  0.000E+00  1.01879E+03  3.167E+00  4.592E+01  4.680E-01  1.318E-01
   1   13    4     8     3    2.0493E+02 -2.3231E+00   2.0725E+02  0.000E+00  0.000E+00  0.000E+00  1.01255E+03  3.173E+00  4.601E+01  4.689E+00 -1.652E-01
   1   13    3     8     4    2.0725E+02 -3.4595E+00   2.1071E+02  0.000E+00  0.000E+00  0.000E+00  1.00631E+03  3.190E+00  4.625E+01  4.713E+00 -2.447E-01
   1   13    2     8     5    2.1071E+02 -2.6210E+00   2.1333E+02  0.000E+00  0.000E+00  0.000E+00  1.00008E+03  3.207E+00  4.650E+01  4.739E+00 -1.844E-01
   1   13    1     8     6    2.1333E+02 -2.0215E+00   2.1535E+02  0.000E+00  0.000E+00  0.000E+00  9.95095E+02  3.220E+00  4.669E+01  2.855E+00 -2.360E-01
   1    8    6     9     1    0.0000E+00  0.0000E+00   0.0000E+00  0.000E+00  0.000E+00  0.000E+00  1.07875E+03  0.000E+00  4.000E+00  0.000E+00  1.000E+00
   1    8    5     9     2    0.0000E+00  0.0000E+00   0.0000E+00  0.000E+00  0.000E+00  0.000E+00  1.07825E+03  0.000E+00  4.000E+00  0.000E+00  1.000E+00





UNSATURATED ZONE PACKAGE VOLUMETRIC BUDGET FOR  TIME STEP    30 STRESS PERIOD    7
  ------------------------------------------------------------------------------



     CUMULATIVE VOLUMES      L**3       RATES FOR THIS TIME STEP      L**3/T
     ------------------                 ------------------------

           IN:                                      IN:
           ---                                      ---
        INFILTRATION =   101972806.2396          INFILTRATION =          23.3175

          OUT:                                     OUT:
          ----                                     ----
              UZF ET =   101815538.2508                UZF ET =          23.3175
        UZF RECHARGE =       73224.0000          UZF RECHARGE =       0.0000E+00

            IN - OUT =       84043.9888              IN - OUT =       0.0000E+00

          STORAGE:                                 STORAGE:
          --------                                 --------
      STORAGE CHANGE =       84044.1205        STORAGE CHANGE =       1.5562E-16

 PERCENT DISCREPANCY IS DIFFERENCE BETWEEN IN-OUT MINUS CHANGE IN STORAGE
 DIVIDED BY THE AVERAGE OF IN AND OUT TIMES 100

 PERCENT DISCREPANCY =           0.00     PERCENT DISCREPANCY =           0.00






1
  VOLUMETRIC BUDGET FOR AGRICULTURAL FIELDS AT  END OF TIME STEP   30, STRESS PERIOD   7
  ------------------------------------------------------------------------------

     CUMULATIVE VOLUMES      L**3       RATES FOR THIS TIME STEP      L**3/T
     ------------------                 ------------------------

           IN:                                      IN:
           ---                                      ---
               AG WELLS  =    88526088.0000                 AG WELLS  =          22.4700
      DIVERSION SEGMENTS =           0.0000        DIVERSION SEGMENTS =           0.0000
       IRRIGATION PONDS  =           0.0000         IRRIGATION PONDS  =           0.0000
           GW IRRIGATION =           0.0000             GW IRRIGATION =           0.0000
           SW IRRIGATION =           0.0000             SW IRRIGATION =           0.0000
        SYSTEM LOSSES GW =           0.0000          SYSTEM LOSSES GW =           0.0000
        SYSTEM LOSSES SW =           0.0000          SYSTEM LOSSES SW =           0.0000

                TOTAL IN =    88526088.0000                  TOTAL IN =          22.4700

          OUT:                                     OUT:
          ----                                     ----
               AG WELLS  =           0.0000                 AG WELLS  =           0.0000
      DIVERSION SEGMENTS =           0.0000        DIVERSION SEGMENTS =           0.0000
       IRRIGATION PONDS  =           0.0000         IRRIGATION PONDS  =           0.0000
           GW IRRIGATION =    88526088.0000             GW IRRIGATION =          22.4700
           SW IRRIGATION =           0.0000             SW IRRIGATION =           0.0000
        SYSTEM LOSSES GW =           0.0000          SYSTEM LOSSES GW =           0.0000
        SYSTEM LOSSES SW =           0.0000          SYSTEM LOSSES SW =           0.0000

               TOTAL OUT =    88526088.0000                 TOTAL OUT =          22.4700

                IN - OUT =           0.0000                  IN - OUT =           0.0000

     PERCENT DISCREPANCY =           0.00         PERCENT DISCREPANCY =           0.00



1
  VOLUMETRIC BUDGET FOR ENTIRE MODEL AT END OF TIME STEP   30, STRESS PERIOD   7
  ------------------------------------------------------------------------------

     CUMULATIVE VOLUMES      L**3       RATES FOR THIS TIME STEP      L**3/T
     ------------------                 ------------------------

           IN:                                      IN:
           ---                                      ---
             STORAGE     =    94161744.0000               STORAGE     =          22.0943
       CONSTANT HEAD     =           0.0000         CONSTANT HEAD     =           0.0000
     HEAD DEP BOUNDS     =     4533346.0000       HEAD DEP BOUNDS     =           0.2858
      STREAM LEAKAGE     =   195441728.0000        STREAM LEAKAGE     =          12.7778
        UZF RECHARGE     =       73223.9531          UZF RECHARGE     =           0.0000
               GW ET     =           0.0000                 GW ET     =           0.0000
     SURFACE LEAKAGE     =           0.0000       SURFACE LEAKAGE     =           0.0000
           AG WELLS      =           0.0000             AG WELLS      =           0.0000

                TOTAL IN =   294210048.0000                  TOTAL IN =          35.1579

          OUT:                                     OUT:
          ----                                     ----
             STORAGE     =    33890188.0000               STORAGE     =           1.2738
       CONSTANT HEAD     =           0.0000         CONSTANT HEAD     =           0.0000
     HEAD DEP BOUNDS     =     4641678.5000       HEAD DEP BOUNDS     =           0.2965
      STREAM LEAKAGE     =   163995904.0000        STREAM LEAKAGE     =          10.4251
        UZF RECHARGE     =           0.0000          UZF RECHARGE     =           0.0000
               GW ET     =     3157392.7500                 GW ET     =           0.6926
     SURFACE LEAKAGE     =           0.0000       SURFACE LEAKAGE     =           0.0000
           AG WELLS      =    88526088.0000             AG WELLS      =          22.4700

               TOTAL OUT =   294211264.0000                 TOTAL OUT =          35.1579

                IN - OUT =       -1216.0000                  IN - OUT =      -7.2479E-05

     PERCENT DISCREPANCY =          -0.00         PERCENT DISCREPANCY =          -0.00






         TIME SUMMARY AT END OF TIME STEP   30 IN STRESS PERIOD    7
                    SECONDS     MINUTES      HOURS       DAYS        YEARS
                    -----------------------------------------------------------
   TIME STEP LENGTH  87667.      1461.1      24.352      1.0147     2.77799E-03
 STRESS PERIOD TIME 2.63000E+06  43833.      730.56      30.440     8.33397E-02
         TOTAL TIME 1.58664E+07 2.64440E+05  4407.3      183.64     0.50278    
1
1
                            STRESS PERIOD NO.    8, LENGTH =   2630000.    
                            -----------------------------------------------

                              NUMBER OF TIME STEPS =    30

                               MULTIPLIER FOR DELT =     1.000

                            INITIAL TIME STEP SIZE =   87666.66    

 REUSING NON-PARAMETER GHB CELLS FROM LAST STRESS PERIOD

      2 GHB CELLS

 REUSING STREAM SEGMENT DATA FROM LAST STRESS PERIOD



            AREAL INFILTRATION RATE
 READING ON UNIT   19 WITH FORMAT: (FREE)              

            1           2           3           4           5           6           7           8           9          10
 ........................................................................................................................
   1   1.0000E-10  2.0000E-10   0.000       0.000       0.000       0.000       0.000       0.000       0.000       0.000    
   2   2.0000E-10  1.0000E-10  2.0000E-10   0.000       0.000      8.0000E-10  8.0000E-10  5.0000E-10   0.000       0.000    
   3    0.000      5.0000E-10  1.0000E-10  1.0000E-10  8.0000E-10  8.0000E-10  5.0000E-10  5.0000E-10   0.000       0.000    
   4   8.0000E-10  5.0000E-10  1.0000E-10  1.0000E-10  1.0000E-10  1.0000E-10  1.0000E-10  1.0000E-10  2.0000E-10   0.000    
   5   8.0000E-10  5.0000E-10  1.0000E-10  1.0000E-10  1.0000E-10  1.0000E-10  1.0000E-10  1.0000E-10  1.0000E-10  1.0000E-10
   6   8.0000E-10  5.0000E-10  5.0000E-10  2.0000E-10  2.0000E-10  1.0000E-10  1.0000E-10  1.0000E-10  1.0000E-10  5.0000E-10
   7   8.0000E-10  5.0000E-10  5.0000E-10  2.0000E-10  2.0000E-10  1.0000E-10  1.0000E-10  2.0000E-10  2.0000E-10   0.000    
   8    0.000      5.0000E-10  5.0000E-10  2.0000E-10  2.0000E-10  1.0000E-10  1.0000E-10  2.0000E-10  5.0000E-10   0.000    
   9    0.000      5.0000E-10  5.0000E-10  2.0000E-10  2.0000E-10  1.0000E-10  1.0000E-10  2.0000E-10  5.0000E-10   0.000    
  10    0.000      5.0000E-10  5.0000E-10  2.0000E-10  2.0000E-10  1.0000E-10  1.0000E-10  2.0000E-10  5.0000E-10  8.0000E-10
  11    0.000      1.0000E-10  1.0000E-10  1.0000E-10  1.0000E-10  1.0000E-10  1.0000E-10  2.0000E-10  5.0000E-10   0.000    
  12   1.0000E-10  1.0000E-10  1.0000E-10  1.0000E-10  1.0000E-10  1.0000E-10  1.0000E-10  1.0000E-10  2.0000E-10   0.000    
  13   1.0000E-10  1.0000E-10  2.0000E-10  2.0000E-10  2.0000E-10  2.0000E-10  2.0000E-10  1.0000E-10  1.0000E-10   0.000    
  14    0.000      2.0000E-10  5.0000E-10  5.0000E-10  5.0000E-10  5.0000E-10  5.0000E-10  2.0000E-10  1.0000E-10   0.000    
  15    0.000       0.000      8.0000E-10  8.0000E-10  8.0000E-10  8.0000E-10   0.000       0.000       0.000       0.000    

                  ET RATE =  4.000000E-07

 USING ET EXTINCTION DEPTH FROM PREVIOUS STRESS PERIOD. CURRENT PERIOD IS:       8

 USING EXTINCTION WATER CONTENT FROM PREVIOUS STRESS PERIOD. CURRENT PERIOD IS:       8

 USING AIR ENTRY PRESSURE FROM PREVIOUS STRESS PERIOD. CURRENT PERIOD IS:       8

 USING ROOT PRESSURE HEAD FROM PREVIOUS STRESS PERIOD. CURRENT PERIOD IS:       8

 USING ROOT ACTIVITY FROM PREVIOUS STRESS PERIOD. CURRENT PERIOD IS:       8

 PROCESSING AG STRESS PERIOD DATA

 READING AG STRESS PERIOD DATA

 READING IRRIGATION SEGMENT

 READING IRRIGATION WELL

 READING SUPPLEMENTAL WELL

 NO IRRPOND OR REUSING IRRPOND DATA FROM LAST STRESS PERIOD

 END PROCESSING AG STRESS PERIOD DATA OPTIONS
 
 SOLVING FOR HEAD 
                                                   Max.-Head-Change                         Max.-Flux-Residual
  Residual-Control   Outer-Iter.   Inner-Iter.     Column Row Layer    Maximum-Head-Change  Column Row Layer    Maximum-Flux-Residual          L2-NORM 
          0                 1           2             4    7     1      -0.1679536725E+00       4    7    1        -0.8782622257E+01      0.2057334275E+02
          0                 2           2             4    7     1       0.1632587542E-01       4    7    1         0.8776447859E+00      0.2055774425E+01
          0                 3           2             4    7     1      -0.1111734318E-02       4    7    1        -0.6143533672E-01      0.1438979578E+00
          0                 4           1             4    7     1       0.4423693610E-04       4    7    1         0.2512707960E-02      0.5885008273E-02

    ------------------------------------------------
       NWT REQUIRED            4 OUTER ITERATIONS 
       AND A TOTAL OF          7 INNER ITERATIONS.
    ------------------------------------------------

 OUTPUT CONTROL FOR STRESS PERIOD    8   TIME STEP    1
    PRINT BUDGET
    SAVE BUDGET
 UBDSV1 SAVING "         STORAGE" ON UNIT 102 AT TIME STEP 1, STRESS PERIOD 8
 UBDSV2 SAVING "   CONSTANT HEAD" ON UNIT 102 AT TIME STEP 1, STRESS PERIOD 8
 UBDSV1 SAVING "FLOW RIGHT FACE " ON UNIT 102 AT TIME STEP 1, STRESS PERIOD 8
 UBDSV1 SAVING "FLOW FRONT FACE " ON UNIT 102 AT TIME STEP 1, STRESS PERIOD 8

  HEAD DEP BOUNDS   PERIOD    8   STEP     1
 BOUNDARY      1   LAYER   1   ROW    13   COL     1   RATE   -0.296479    
 BOUNDARY      2   LAYER   1   ROW    14   COL     9   RATE    0.285761    



 STREAM LISTING     PERIOD      8   STEP        1

 LAYER ROW COL. STREAM  RCH.  FLOW INTO     FLOW TO   FLOW OUT OF   OVRLND.     DIRECT     STREAM       STREAM     STREAM     STREAM   STREAMBED  STREAMBED
                SEG.NO.  NO.  STRM. RCH.    AQUIFER    STRM. RCH.    RUNOFF     PRECIP       ET          HEAD       DEPTH      WIDTH   CONDCTNC.   GRADIENT

   1    1    1     1     1    5.6250E+01  3.5875E-01   5.5891E+01  0.000E+00  0.000E+00  0.000E+00  1.09453E+03  1.479E+00  1.780E+01  8.010E-02  1.493E+00
   1    2    2     1     2    5.5891E+01  5.5550E-01   5.5336E+01  0.000E+00  0.000E+00  0.000E+00  1.08953E+03  1.473E+00  1.774E+01  1.242E-01  1.491E+00
   1    3    3     1     3    5.5336E+01  4.7368E-01   5.4862E+01  0.000E+00  0.000E+00  0.000E+00  1.08389E+03  1.467E+00  1.767E+01  1.060E-01  1.489E+00
   1    3    4     1     4    5.4862E+01  4.3613E-01   5.4426E+01  0.000E+00  0.000E+00  0.000E+00  1.07887E+03  1.461E+00  1.762E+01  9.777E-02  1.487E+00
   1    4    5     2     1    5.2426E+01  3.8056E-01   5.2046E+01  0.000E+00  0.000E+00  0.000E+00  1.07381E+03  1.879E+00  1.200E+01  7.800E-02  1.626E+00
   1    5    6     2     2    5.2046E+01  2.9230E-01   5.1753E+01  0.000E+00  0.000E+00  0.000E+00  1.06838E+03  1.872E+00  1.200E+01  6.000E-02  1.624E+00
   1    6    6     2     3    5.1753E+01  2.9192E-01   5.1461E+01  0.000E+00  0.000E+00  0.000E+00  1.06366E+03  1.865E+00  1.200E+01  6.000E-02  1.622E+00
   1    7    6     2     4    5.1461E+01  2.9154E-01   5.1170E+01  0.000E+00  0.000E+00  0.000E+00  1.05893E+03  1.859E+00  1.200E+01  6.000E-02  1.620E+00
   1    8    6     2     5    5.1170E+01  2.9116E-01   5.0879E+01  0.000E+00  0.000E+00  0.000E+00  1.05421E+03  1.853E+00  1.200E+01  6.000E-02  1.618E+00
   1    3    5     3     1    2.0000E+00  2.8252E-01   1.7175E+00  0.000E+00  0.000E+00  0.000E+00  1.07555E+03  1.909E+00  9.636E+00  7.227E-02  1.955E+00
   1    3    6     3     2    1.7175E+00  2.4905E-01   1.4684E+00  0.000E+00  0.000E+00  0.000E+00  1.07264E+03  1.727E+00  8.909E+00  6.682E-02  1.864E+00
   1    3    7     3     3    1.4684E+00  1.9718E-01   1.2712E+00  0.000E+00  0.000E+00  0.000E+00  1.06987E+03  1.555E+00  8.218E+00  5.547E-02  1.777E+00
   1    4    8     3     4    1.2712E+00  2.2567E-01   1.0456E+00  0.000E+00  0.000E+00  0.000E+00  1.06682E+03  1.364E+00  7.455E+00  6.709E-02  1.682E+00
   1    5    8     3     5    1.0456E+00  1.5790E-01   8.8768E-01  0.000E+00  0.000E+00  0.000E+00  1.06362E+03  1.164E+00  6.655E+00  4.991E-02  1.582E+00
   1    6    8     3     6    8.8768E-01  5.5980E-02   8.3170E-01  0.000E+00  0.000E+00  0.000E+00  1.06158E+03  1.036E+00  6.145E+00  1.844E-02  1.518E+00
   1    5   10     4     1    1.0000E+01  9.0919E-02   9.9091E+00  0.000E+00  0.000E+00  0.000E+00  1.07836E+03  6.368E-01  1.000E+01  2.500E-02  1.212E+00
   1    5    9     4     2    9.9091E+00  1.8158E-01   9.7275E+00  0.000E+00  0.000E+00  0.000E+00  1.07154E+03  6.315E-01  1.000E+01  5.000E-02  1.211E+00
   1    6    8     4     3    9.7275E+00  1.2689E-01   9.6006E+00  0.000E+00  0.000E+00  0.000E+00  1.06381E+03  6.256E-01  1.000E+01  3.500E-02  1.209E+00
   1    6    8     5     1    1.0432E+01  2.2686E-01   1.0205E+01  0.000E+00  0.000E+00  0.000E+00  1.05868E+03  6.790E-01  1.542E+01  6.166E-02  1.226E+00
   1    7    7     5     2    1.0205E+01  2.7894E-01   9.9265E+00  0.000E+00  0.000E+00  0.000E+00  1.05417E+03  6.732E-01  1.519E+01  7.594E-02  1.224E+00
   1    8    7     5     3    9.9265E+00  1.9221E-01   9.7343E+00  0.000E+00  0.000E+00  0.000E+00  1.04992E+03  6.676E-01  1.497E+01  5.241E-02  1.223E+00
   1    8    6     5     4    9.7343E+00  1.3577E-01   9.5985E+00  0.000E+00  0.000E+00  0.000E+00  1.04691E+03  6.637E-01  1.482E+01  3.706E-02  1.221E+00
   1    9    6     6     1    6.0477E+01  3.0429E-01   6.0173E+01  0.000E+00  0.000E+00  0.000E+00  1.04480E+03  2.071E+00  1.200E+01  6.000E-02  1.690E+00
   1   10    7     6     2    6.0173E+01  3.0391E-01   5.9869E+01  0.000E+00  0.000E+00  0.000E+00  1.04025E+03  2.065E+00  1.200E+01  6.000E-02  1.688E+00
   1   11    7     6     3    5.9869E+01  3.0353E-01   5.9565E+01  0.000E+00  0.000E+00  0.000E+00  1.03570E+03  2.059E+00  1.200E+01  6.000E-02  1.686E+00
   1   12    7     6     4    5.9565E+01  3.0316E-01   5.9262E+01  0.000E+00  0.000E+00  0.000E+00  1.03114E+03  2.053E+00  1.200E+01  6.000E-02  1.684E+00
   1   13    7     6     5    5.9262E+01  1.8710E-02   5.9244E+01  0.000E+00  0.000E+00  0.000E+00  1.02796E+03  2.049E+00  1.200E+01  2.400E-02  2.599E-01
   1   14    9     7     1    1.5000E+02  1.3359E+00   1.4866E+02  0.000E+00  0.000E+00  0.000E+00  1.03987E+03  2.288E+00  5.529E+01  5.593E-01  7.961E-01
   1   13    8     7     2    1.4866E+02  1.8166E+00   1.4685E+02  0.000E+00  0.000E+00  0.000E+00  1.03478E+03  2.279E+00  5.526E+01  6.148E-01  9.849E-01
   1   13    7     7     3    1.4685E+02  1.4025E+00   1.4545E+02  0.000E+00  0.000E+00  0.000E+00  1.02969E+03  2.271E+00  5.522E+01  5.585E-01  8.371E-01
   1   13    6     8     1    2.0469E+02  9.8069E-01   2.0371E+02  0.000E+00  0.000E+00  0.000E+00  1.02504E+03  3.162E+00  4.585E+01  4.673E-01  6.996E-01
   1   13    5     8     2    2.0371E+02  1.8082E-01   2.0353E+02  0.000E+00  0.000E+00  0.000E+00  1.01878E+03  3.159E+00  4.580E+01  4.668E-01  1.291E-01
   1   13    4     8     3    2.0353E+02 -2.3182E+00   2.0585E+02  0.000E+00  0.000E+00  0.000E+00  1.01254E+03  3.165E+00  4.589E+01  4.677E+00 -1.652E-01
   1   13    3     8     4    2.0585E+02 -3.4483E+00   2.0929E+02  0.000E+00  0.000E+00  0.000E+00  1.00631E+03  3.182E+00  4.614E+01  4.701E+00 -2.445E-01
   1   13    2     8     5    2.0929E+02 -2.6422E+00   2.1194E+02  0.000E+00  0.000E+00  0.000E+00  1.00007E+03  3.199E+00  4.639E+01  4.727E+00 -1.863E-01
   1   13    1     8     6    2.1194E+02 -2.0353E+00   2.1397E+02  0.000E+00  0.000E+00  0.000E+00  9.95087E+02  3.212E+00  4.658E+01  2.848E+00 -2.382E-01
   1    8    6     9     1    0.0000E+00  0.0000E+00   0.0000E+00  0.000E+00  0.000E+00  0.000E+00  1.07875E+03  0.000E+00  4.000E+00  0.000E+00  1.000E+00
   1    8    5     9     2    0.0000E+00  0.0000E+00   0.0000E+00  0.000E+00  0.000E+00  0.000E+00  1.07825E+03  0.000E+00  4.000E+00  0.000E+00  1.000E+00



 UBDSV3 SAVING "           GW ET" ON UNIT  61 AT TIME STEP 1, STRESS PERIOD 8
 UBDSV3 SAVING "    UZF RECHARGE" ON UNIT  61 AT TIME STEP 1, STRESS PERIOD 8
 UBDSV3 SAVING " SURFACE LEAKAGE" ON UNIT  61 AT TIME STEP 1, STRESS PERIOD 8
 UBDSV3 SAVING "       HORT+DUNN" ON UNIT  61 AT TIME STEP 1, STRESS PERIOD 8
 UBDSV3 SAVING "  STORAGE CHANGE" ON UNIT  61 AT TIME STEP 1, STRESS PERIOD 8


UNSATURATED ZONE PACKAGE VOLUMETRIC BUDGET FOR  TIME STEP     1 STRESS PERIOD    8
  ------------------------------------------------------------------------------



     CUMULATIVE VOLUMES      L**3       RATES FOR THIS TIME STEP      L**3/T
     ------------------                 ------------------------

           IN:                                      IN:
           ---                                      ---
        INFILTRATION =   107304788.8605          INFILTRATION =          60.8211

          OUT:                                     OUT:
          ----                                     ----
              UZF ET =   107147205.4967                UZF ET =          60.8175
        UZF RECHARGE =       73224.0000          UZF RECHARGE =       0.0000E+00

            IN - OUT =       84359.3638              IN - OUT =       3.5992E-03

          STORAGE:                                 STORAGE:
          --------                                 --------
      STORAGE CHANGE =       84359.1879        STORAGE CHANGE =       3.5939E-03

 PERCENT DISCREPANCY IS DIFFERENCE BETWEEN IN-OUT MINUS CHANGE IN STORAGE
 DIVIDED BY THE AVERAGE OF IN AND OUT TIMES 100

 PERCENT DISCREPANCY =           0.00     PERCENT DISCREPANCY =           0.00






 

            AG WELLS      PERIOD    8   STEP   1
 AG WELL      1   LAYER   1   ROW     6   COL     4   RATE    -9.99560    
 AG WELL      2   LAYER   1   ROW     6   COL     5   RATE    -9.99560    
 AG WELL      3   LAYER   1   ROW     7   COL     4   RATE    -9.99560    
 AG WELL      4   LAYER   1   ROW     7   COL     5   RATE    -9.99560    
 AG WELL      5   LAYER   1   ROW     8   COL     4   RATE    -9.99560    
 AG WELL      6   LAYER   1   ROW     8   COL     5   RATE    -9.99560    
 
 

   DIVERSION SEGMENTS     PERIOD    8   STEP   1
 SEGMENT      9   RATE     0.00000    
 
 

        SW IRRIGATION     PERIOD    8   STEP   1
 SEGMENT      9   ROW     6   COL     4   RATE     0.00000    
 SEGMENT      9   ROW     6   COL     5   RATE     0.00000    
 SEGMENT      9   ROW     7   COL     4   RATE     0.00000    
 SEGMENT      9   ROW     7   COL     5   RATE     0.00000    
 SEGMENT      9   ROW     8   COL     4   RATE     0.00000    
 SEGMENT      9   ROW     8   COL     5   RATE     0.00000    
 
 

        GW IRRIGATION     PERIOD    8   STEP   1
 AG WELL      1   ROW     6   COL     4   RATE     9.99560    
 AG WELL      2   ROW     6   COL     5   RATE     9.99560    
 AG WELL      3   ROW     7   COL     4   RATE     9.99560    
 AG WELL      4   ROW     7   COL     5   RATE     9.99560    
 AG WELL      5   ROW     8   COL     4   RATE     9.99560    
 AG WELL      6   ROW     8   COL     5   RATE     9.99560    
 
1
  VOLUMETRIC BUDGET FOR AGRICULTURAL FIELDS AT  END OF TIME STEP    1, STRESS PERIOD   8
  ------------------------------------------------------------------------------

     CUMULATIVE VOLUMES      L**3       RATES FOR THIS TIME STEP      L**3/T
     ------------------                 ------------------------

           IN:                                      IN:
           ---                                      ---
               AG WELLS  =    93783776.0000                 AG WELLS  =          59.9736
      DIVERSION SEGMENTS =           0.0000        DIVERSION SEGMENTS =           0.0000
       IRRIGATION PONDS  =           0.0000         IRRIGATION PONDS  =           0.0000
           GW IRRIGATION =           0.0000             GW IRRIGATION =           0.0000
           SW IRRIGATION =           0.0000             SW IRRIGATION =           0.0000
        SYSTEM LOSSES GW =           0.0000          SYSTEM LOSSES GW =           0.0000
        SYSTEM LOSSES SW =           0.0000          SYSTEM LOSSES SW =           0.0000

                TOTAL IN =    93783776.0000                  TOTAL IN =          59.9736

          OUT:                                     OUT:
          ----                                     ----
               AG WELLS  =           0.0000                 AG WELLS  =           0.0000
      DIVERSION SEGMENTS =           0.0000        DIVERSION SEGMENTS =           0.0000
       IRRIGATION PONDS  =           0.0000         IRRIGATION PONDS  =           0.0000
           GW IRRIGATION =    93783776.0000             GW IRRIGATION =          59.9736
           SW IRRIGATION =           0.0000             SW IRRIGATION =           0.0000
        SYSTEM LOSSES GW =           0.0000          SYSTEM LOSSES GW =           0.0000
        SYSTEM LOSSES SW =           0.0000          SYSTEM LOSSES SW =           0.0000

               TOTAL OUT =    93783776.0000                 TOTAL OUT =          59.9736

                IN - OUT =           0.0000                  IN - OUT =           0.0000

     PERCENT DISCREPANCY =           0.00         PERCENT DISCREPANCY =           0.00



1
  VOLUMETRIC BUDGET FOR ENTIRE MODEL AT END OF TIME STEP    1, STRESS PERIOD   8
  ------------------------------------------------------------------------------

     CUMULATIVE VOLUMES      L**3       RATES FOR THIS TIME STEP      L**3/T
     ------------------                 ------------------------

           IN:                                      IN:
           ---                                      ---
             STORAGE     =    99459864.0000               STORAGE     =          60.4348
       CONSTANT HEAD     =           0.0000         CONSTANT HEAD     =           0.0000
     HEAD DEP BOUNDS     =     4558397.5000       HEAD DEP BOUNDS     =           0.2858
      STREAM LEAKAGE     =   196557120.0000        STREAM LEAKAGE     =          12.7230
        UZF RECHARGE     =       73223.9531          UZF RECHARGE     =           0.0000
               GW ET     =           0.0000                 GW ET     =           0.0000
     SURFACE LEAKAGE     =           0.0000       SURFACE LEAKAGE     =           0.0000
           AG WELLS      =           0.0000             AG WELLS      =           0.0000

                TOTAL IN =   300648608.0000                  TOTAL IN =          73.4436

          OUT:                                     OUT:
          ----                                     ----
             STORAGE     =    33996336.0000               STORAGE     =           1.2108
       CONSTANT HEAD     =           0.0000         CONSTANT HEAD     =           0.0000
     HEAD DEP BOUNDS     =     4667670.0000       HEAD DEP BOUNDS     =           0.2965
      STREAM LEAKAGE     =   164911488.0000        STREAM LEAKAGE     =          10.4440
        UZF RECHARGE     =           0.0000          UZF RECHARGE     =           0.0000
               GW ET     =     3290553.7500                 GW ET     =           1.5189
     SURFACE LEAKAGE     =           0.0000       SURFACE LEAKAGE     =           0.0000
           AG WELLS      =    93783776.0000             AG WELLS      =          59.9736

               TOTAL OUT =   300649824.0000                 TOTAL OUT =          73.4438

                IN - OUT =       -1216.0000                  IN - OUT =      -2.0599E-04

     PERCENT DISCREPANCY =          -0.00         PERCENT DISCREPANCY =          -0.00






         TIME SUMMARY AT END OF TIME STEP    1 IN STRESS PERIOD    8
                    SECONDS     MINUTES      HOURS       DAYS        YEARS
                    -----------------------------------------------------------
   TIME STEP LENGTH  87667.      1461.1      24.352      1.0147     2.77799E-03
 STRESS PERIOD TIME  87667.      1461.1      24.352      1.0147     2.77799E-03
         TOTAL TIME 1.59541E+07 2.65901E+05  4431.7      184.65     0.50555    
1
 
 SOLVING FOR HEAD 
                                                   Max.-Head-Change                         Max.-Flux-Residual
  Residual-Control   Outer-Iter.   Inner-Iter.     Column Row Layer    Maximum-Head-Change  Column Row Layer    Maximum-Flux-Residual          L2-NORM 
          0                 1           2             4    7     1      -0.1668301171E+00       4    7    1        -0.8726733155E+01      0.2025087774E+02
          0                 2           2             4    7     1       0.1622772600E-01       4    7    1         0.8726536894E+00      0.2025018368E+01
          0                 3           2             4    7     1      -0.1105050866E-02       4    7    1        -0.6108597034E-01      0.1417481311E+00
          0                 4           1             4    7     1       0.4397099445E-04       4    7    1         0.2498418806E-02      0.5797305632E-02

    ------------------------------------------------
       NWT REQUIRED            4 OUTER ITERATIONS 
       AND A TOTAL OF          7 INNER ITERATIONS.
    ------------------------------------------------

 NO OUTPUT CONTROL FOR STRESS PERIOD    8   TIME STEP    2
 
 SOLVING FOR HEAD 
                                                   Max.-Head-Change                         Max.-Flux-Residual
  Residual-Control   Outer-Iter.   Inner-Iter.     Column Row Layer    Maximum-Head-Change  Column Row Layer    Maximum-Flux-Residual          L2-NORM 
          0                 1           2             4    7     1      -0.1656633344E+00       4    7    1        -0.8668350759E+01      0.1994902628E+02
          0                 2           2             4    7     1       0.1611421575E-01       4    7    1         0.8668144902E+00      0.1994850816E+01
          0                 3           2             4    7     1      -0.1097321377E-02       4    7    1        -0.6067723530E-01      0.1396380106E+00
          0                 4           1             4    7     1       0.4366343049E-04       4    7    1         0.2481701475E-02      0.5711077668E-02

    ------------------------------------------------
       NWT REQUIRED            4 OUTER ITERATIONS 
       AND A TOTAL OF          7 INNER ITERATIONS.
    ------------------------------------------------

 NO OUTPUT CONTROL FOR STRESS PERIOD    8   TIME STEP    3
 
 SOLVING FOR HEAD 
                                                   Max.-Head-Change                         Max.-Flux-Residual
  Residual-Control   Outer-Iter.   Inner-Iter.     Column Row Layer    Maximum-Head-Change  Column Row Layer    Maximum-Flux-Residual          L2-NORM 
          0                 1           2             4    7     1      -0.1644576916E+00       4    7    1        -0.8607715565E+01      0.1966349577E+02
          0                 2           2             4    7     1       0.1599692733E-01       4    7    1         0.8607501357E+00      0.1966307009E+01
          0                 3           2             4    7     1      -0.1089334591E-02       4    7    1        -0.6025273819E-01      0.1376408017E+00
          0                 4           1             4    7     1       0.4334562811E-04       4    7    1         0.2464339485E-02      0.5629459928E-02

    ------------------------------------------------
       NWT REQUIRED            4 OUTER ITERATIONS 
       AND A TOTAL OF          7 INNER ITERATIONS.
    ------------------------------------------------

 NO OUTPUT CONTROL FOR STRESS PERIOD    8   TIME STEP    4
 
 SOLVING FOR HEAD 
                                                   Max.-Head-Change                         Max.-Flux-Residual
  Residual-Control   Outer-Iter.   Inner-Iter.     Column Row Layer    Maximum-Head-Change  Column Row Layer    Maximum-Flux-Residual          L2-NORM 
          0                 1           2             4    7     1      -0.1632176453E+00       4    7    1        -0.8545072907E+01      0.1939179633E+02
          0                 2           2             4    7     1       0.1587629411E-01       4    7    1         0.8544851496E+00      0.1939142053E+01
          0                 3           2             4    7     1      -0.1081120019E-02       4    7    1        -0.5981419580E-01      0.1357396771E+00
          0                 4           1             4    7     1       0.4301876232E-04       4    7    1         0.2446403049E-02      0.5551724948E-02

    ------------------------------------------------
       NWT REQUIRED            4 OUTER ITERATIONS 
       AND A TOTAL OF          7 INNER ITERATIONS.
    ------------------------------------------------

 OUTPUT CONTROL FOR STRESS PERIOD    8   TIME STEP    5
    PRINT BUDGET
    SAVE BUDGET
 UBDSV1 SAVING "         STORAGE" ON UNIT 102 AT TIME STEP 5, STRESS PERIOD 8
 UBDSV2 SAVING "   CONSTANT HEAD" ON UNIT 102 AT TIME STEP 5, STRESS PERIOD 8
 UBDSV1 SAVING "FLOW RIGHT FACE " ON UNIT 102 AT TIME STEP 5, STRESS PERIOD 8
 UBDSV1 SAVING "FLOW FRONT FACE " ON UNIT 102 AT TIME STEP 5, STRESS PERIOD 8

  HEAD DEP BOUNDS   PERIOD    8   STEP     5
 BOUNDARY      1   LAYER   1   ROW    13   COL     1   RATE   -0.296306    
 BOUNDARY      2   LAYER   1   ROW    14   COL     9   RATE    0.285760    



 STREAM LISTING     PERIOD      8   STEP        5

 LAYER ROW COL. STREAM  RCH.  FLOW INTO     FLOW TO   FLOW OUT OF   OVRLND.     DIRECT     STREAM       STREAM     STREAM     STREAM   STREAMBED  STREAMBED
                SEG.NO.  NO.  STRM. RCH.    AQUIFER    STRM. RCH.    RUNOFF     PRECIP       ET          HEAD       DEPTH      WIDTH   CONDCTNC.   GRADIENT

   1    1    1     1     1    5.6250E+01  3.5875E-01   5.5891E+01  0.000E+00  0.000E+00  0.000E+00  1.09453E+03  1.479E+00  1.780E+01  8.010E-02  1.493E+00
   1    2    2     1     2    5.5891E+01  5.5550E-01   5.5336E+01  0.000E+00  0.000E+00  0.000E+00  1.08953E+03  1.473E+00  1.774E+01  1.242E-01  1.491E+00
   1    3    3     1     3    5.5336E+01  4.7368E-01   5.4862E+01  0.000E+00  0.000E+00  0.000E+00  1.08389E+03  1.467E+00  1.767E+01  1.060E-01  1.489E+00
   1    3    4     1     4    5.4862E+01  4.3613E-01   5.4426E+01  0.000E+00  0.000E+00  0.000E+00  1.07887E+03  1.461E+00  1.762E+01  9.777E-02  1.487E+00
   1    4    5     2     1    5.2426E+01  3.8056E-01   5.2046E+01  0.000E+00  0.000E+00  0.000E+00  1.07381E+03  1.879E+00  1.200E+01  7.800E-02  1.626E+00
   1    5    6     2     2    5.2046E+01  2.9230E-01   5.1753E+01  0.000E+00  0.000E+00  0.000E+00  1.06838E+03  1.872E+00  1.200E+01  6.000E-02  1.624E+00
   1    6    6     2     3    5.1753E+01  2.9192E-01   5.1461E+01  0.000E+00  0.000E+00  0.000E+00  1.06366E+03  1.865E+00  1.200E+01  6.000E-02  1.622E+00
   1    7    6     2     4    5.1461E+01  2.9154E-01   5.1170E+01  0.000E+00  0.000E+00  0.000E+00  1.05893E+03  1.859E+00  1.200E+01  6.000E-02  1.620E+00
   1    8    6     2     5    5.1170E+01  2.9116E-01   5.0879E+01  0.000E+00  0.000E+00  0.000E+00  1.05421E+03  1.853E+00  1.200E+01  6.000E-02  1.618E+00
   1    3    5     3     1    2.0000E+00  2.8252E-01   1.7175E+00  0.000E+00  0.000E+00  0.000E+00  1.07555E+03  1.909E+00  9.636E+00  7.227E-02  1.955E+00
   1    3    6     3     2    1.7175E+00  2.4905E-01   1.4684E+00  0.000E+00  0.000E+00  0.000E+00  1.07264E+03  1.727E+00  8.909E+00  6.682E-02  1.864E+00
   1    3    7     3     3    1.4684E+00  1.9718E-01   1.2712E+00  0.000E+00  0.000E+00  0.000E+00  1.06987E+03  1.555E+00  8.218E+00  5.547E-02  1.777E+00
   1    4    8     3     4    1.2712E+00  2.2567E-01   1.0456E+00  0.000E+00  0.000E+00  0.000E+00  1.06682E+03  1.364E+00  7.455E+00  6.709E-02  1.682E+00
   1    5    8     3     5    1.0456E+00  1.5790E-01   8.8768E-01  0.000E+00  0.000E+00  0.000E+00  1.06362E+03  1.164E+00  6.655E+00  4.991E-02  1.582E+00
   1    6    8     3     6    8.8768E-01  5.5980E-02   8.3170E-01  0.000E+00  0.000E+00  0.000E+00  1.06158E+03  1.036E+00  6.145E+00  1.844E-02  1.518E+00
   1    5   10     4     1    1.0000E+01  9.0919E-02   9.9091E+00  0.000E+00  0.000E+00  0.000E+00  1.07836E+03  6.368E-01  1.000E+01  2.500E-02  1.212E+00
   1    5    9     4     2    9.9091E+00  1.8158E-01   9.7275E+00  0.000E+00  0.000E+00  0.000E+00  1.07154E+03  6.315E-01  1.000E+01  5.000E-02  1.211E+00
   1    6    8     4     3    9.7275E+00  1.2689E-01   9.6006E+00  0.000E+00  0.000E+00  0.000E+00  1.06381E+03  6.256E-01  1.000E+01  3.500E-02  1.209E+00
   1    6    8     5     1    1.0432E+01  2.2686E-01   1.0205E+01  0.000E+00  0.000E+00  0.000E+00  1.05868E+03  6.790E-01  1.542E+01  6.166E-02  1.226E+00
   1    7    7     5     2    1.0205E+01  2.7894E-01   9.9265E+00  0.000E+00  0.000E+00  0.000E+00  1.05417E+03  6.732E-01  1.519E+01  7.594E-02  1.224E+00
   1    8    7     5     3    9.9265E+00  1.9221E-01   9.7343E+00  0.000E+00  0.000E+00  0.000E+00  1.04992E+03  6.676E-01  1.497E+01  5.241E-02  1.223E+00
   1    8    6     5     4    9.7343E+00  1.3577E-01   9.5985E+00  0.000E+00  0.000E+00  0.000E+00  1.04691E+03  6.637E-01  1.482E+01  3.706E-02  1.221E+00
   1    9    6     6     1    6.0477E+01  3.0429E-01   6.0173E+01  0.000E+00  0.000E+00  0.000E+00  1.04480E+03  2.071E+00  1.200E+01  6.000E-02  1.690E+00
   1   10    7     6     2    6.0173E+01  3.0391E-01   5.9869E+01  0.000E+00  0.000E+00  0.000E+00  1.04025E+03  2.065E+00  1.200E+01  6.000E-02  1.688E+00
   1   11    7     6     3    5.9869E+01  3.0353E-01   5.9565E+01  0.000E+00  0.000E+00  0.000E+00  1.03570E+03  2.059E+00  1.200E+01  6.000E-02  1.686E+00
   1   12    7     6     4    5.9565E+01  3.0316E-01   5.9262E+01  0.000E+00  0.000E+00  0.000E+00  1.03114E+03  2.053E+00  1.200E+01  6.000E-02  1.684E+00
   1   13    7     6     5    5.9262E+01  1.8673E-02   5.9244E+01  0.000E+00  0.000E+00  0.000E+00  1.02796E+03  2.049E+00  1.200E+01  2.400E-02  2.593E-01
   1   14    9     7     1    1.5000E+02  1.3358E+00   1.4866E+02  0.000E+00  0.000E+00  0.000E+00  1.03987E+03  2.288E+00  5.529E+01  5.593E-01  7.961E-01
   1   13    8     7     2    1.4866E+02  1.8161E+00   1.4685E+02  0.000E+00  0.000E+00  0.000E+00  1.03478E+03  2.279E+00  5.526E+01  6.148E-01  9.847E-01
   1   13    7     7     3    1.4685E+02  1.4016E+00   1.4545E+02  0.000E+00  0.000E+00  0.000E+00  1.02969E+03  2.271E+00  5.522E+01  5.585E-01  8.366E-01
   1   13    6     8     1    2.0469E+02  9.8054E-01   2.0371E+02  0.000E+00  0.000E+00  0.000E+00  1.02504E+03  3.162E+00  4.585E+01  4.673E-01  6.995E-01
   1   13    5     8     2    2.0371E+02  1.8120E-01   2.0353E+02  0.000E+00  0.000E+00  0.000E+00  1.01878E+03  3.159E+00  4.580E+01  4.668E-01  1.294E-01
   1   13    4     8     3    2.0353E+02 -2.2560E+00   2.0578E+02  0.000E+00  0.000E+00  0.000E+00  1.01254E+03  3.165E+00  4.589E+01  4.676E+00 -1.608E-01
   1   13    3     8     4    2.0578E+02 -3.3807E+00   2.0917E+02  0.000E+00  0.000E+00  0.000E+00  1.00631E+03  3.181E+00  4.613E+01  4.701E+00 -2.397E-01
   1   13    2     8     5    2.0917E+02 -2.6112E+00   2.1178E+02  0.000E+00  0.000E+00  0.000E+00  1.00007E+03  3.198E+00  4.638E+01  4.726E+00 -1.842E-01
   1   13    1     8     6    2.1178E+02 -2.0244E+00   2.1380E+02  0.000E+00  0.000E+00  0.000E+00  9.95086E+02  3.212E+00  4.657E+01  2.847E+00 -2.370E-01
   1    8    6     9     1    0.0000E+00  0.0000E+00   0.0000E+00  0.000E+00  0.000E+00  0.000E+00  1.07875E+03  0.000E+00  4.000E+00  0.000E+00  1.000E+00
   1    8    5     9     2    0.0000E+00  0.0000E+00   0.0000E+00  0.000E+00  0.000E+00  0.000E+00  1.07825E+03  0.000E+00  4.000E+00  0.000E+00  1.000E+00



 UBDSV3 SAVING "           GW ET" ON UNIT  61 AT TIME STEP 5, STRESS PERIOD 8
 UBDSV3 SAVING "    UZF RECHARGE" ON UNIT  61 AT TIME STEP 5, STRESS PERIOD 8
 UBDSV3 SAVING " SURFACE LEAKAGE" ON UNIT  61 AT TIME STEP 5, STRESS PERIOD 8
 UBDSV3 SAVING "       HORT+DUNN" ON UNIT  61 AT TIME STEP 5, STRESS PERIOD 8
 UBDSV3 SAVING "  STORAGE CHANGE" ON UNIT  61 AT TIME STEP 5, STRESS PERIOD 8


UNSATURATED ZONE PACKAGE VOLUMETRIC BUDGET FOR  TIME STEP     5 STRESS PERIOD    8
  ------------------------------------------------------------------------------



     CUMULATIVE VOLUMES      L**3       RATES FOR THIS TIME STEP      L**3/T
     ------------------                 ------------------------

           IN:                                      IN:
           ---                                      ---
        INFILTRATION =   128631457.8440          INFILTRATION =          60.8175

          OUT:                                     OUT:
          ----                                     ----
              UZF ET =   128473874.4802                UZF ET =          60.8175
        UZF RECHARGE =       73224.0000          UZF RECHARGE =       0.0000E+00

            IN - OUT =       84359.3638              IN - OUT =       0.0000E+00

          STORAGE:                                 STORAGE:
          --------                                 --------
      STORAGE CHANGE =       84359.1881        STORAGE CHANGE =      -4.1498E-17

 PERCENT DISCREPANCY IS DIFFERENCE BETWEEN IN-OUT MINUS CHANGE IN STORAGE
 DIVIDED BY THE AVERAGE OF IN AND OUT TIMES 100

 PERCENT DISCREPANCY =           0.00     PERCENT DISCREPANCY =           0.00






 

            AG WELLS      PERIOD    8   STEP   5
 AG WELL      1   LAYER   1   ROW     6   COL     4   RATE    -9.99500    
 AG WELL      2   LAYER   1   ROW     6   COL     5   RATE    -9.99500    
 AG WELL      3   LAYER   1   ROW     7   COL     4   RATE    -9.99500    
 AG WELL      4   LAYER   1   ROW     7   COL     5   RATE    -9.99500    
 AG WELL      5   LAYER   1   ROW     8   COL     4   RATE    -9.99500    
 AG WELL      6   LAYER   1   ROW     8   COL     5   RATE    -9.99500    
 
 

   DIVERSION SEGMENTS     PERIOD    8   STEP   5
 SEGMENT      9   RATE     0.00000    
 
 

        SW IRRIGATION     PERIOD    8   STEP   5
 SEGMENT      9   ROW     6   COL     4   RATE     0.00000    
 SEGMENT      9   ROW     6   COL     5   RATE     0.00000    
 SEGMENT      9   ROW     7   COL     4   RATE     0.00000    
 SEGMENT      9   ROW     7   COL     5   RATE     0.00000    
 SEGMENT      9   ROW     8   COL     4   RATE     0.00000    
 SEGMENT      9   ROW     8   COL     5   RATE     0.00000    
 
 

        GW IRRIGATION     PERIOD    8   STEP   5
 AG WELL      1   ROW     6   COL     4   RATE     9.99500    
 AG WELL      2   ROW     6   COL     5   RATE     9.99500    
 AG WELL      3   ROW     7   COL     4   RATE     9.99500    
 AG WELL      4   ROW     7   COL     5   RATE     9.99500    
 AG WELL      5   ROW     8   COL     4   RATE     9.99500    
 AG WELL      6   ROW     8   COL     5   RATE     9.99500    
 
1
  VOLUMETRIC BUDGET FOR AGRICULTURAL FIELDS AT  END OF TIME STEP    5, STRESS PERIOD   8
  ------------------------------------------------------------------------------

     CUMULATIVE VOLUMES      L**3       RATES FOR THIS TIME STEP      L**3/T
     ------------------                 ------------------------

           IN:                                      IN:
           ---                                      ---
               AG WELLS  =   114813248.0000                 AG WELLS  =          59.9700
      DIVERSION SEGMENTS =           0.0000        DIVERSION SEGMENTS =           0.0000
       IRRIGATION PONDS  =           0.0000         IRRIGATION PONDS  =           0.0000
           GW IRRIGATION =           0.0000             GW IRRIGATION =           0.0000
           SW IRRIGATION =           0.0000             SW IRRIGATION =           0.0000
        SYSTEM LOSSES GW =           0.0000          SYSTEM LOSSES GW =           0.0000
        SYSTEM LOSSES SW =           0.0000          SYSTEM LOSSES SW =           0.0000

                TOTAL IN =   114813248.0000                  TOTAL IN =          59.9700

          OUT:                                     OUT:
          ----                                     ----
               AG WELLS  =           0.0000                 AG WELLS  =           0.0000
      DIVERSION SEGMENTS =           0.0000        DIVERSION SEGMENTS =           0.0000
       IRRIGATION PONDS  =           0.0000         IRRIGATION PONDS  =           0.0000
           GW IRRIGATION =   114813248.0000             GW IRRIGATION =          59.9700
           SW IRRIGATION =           0.0000             SW IRRIGATION =           0.0000
        SYSTEM LOSSES GW =           0.0000          SYSTEM LOSSES GW =           0.0000
        SYSTEM LOSSES SW =           0.0000          SYSTEM LOSSES SW =           0.0000

               TOTAL OUT =   114813248.0000                 TOTAL OUT =          59.9700

                IN - OUT =           0.0000                  IN - OUT =           0.0000

     PERCENT DISCREPANCY =           0.00         PERCENT DISCREPANCY =           0.00



1
  VOLUMETRIC BUDGET FOR ENTIRE MODEL AT END OF TIME STEP    5, STRESS PERIOD   8
  ------------------------------------------------------------------------------

     CUMULATIVE VOLUMES      L**3       RATES FOR THIS TIME STEP      L**3/T
     ------------------                 ------------------------

           IN:                                      IN:
           ---                                      ---
             STORAGE     =   120449776.0000               STORAGE     =          59.6414
       CONSTANT HEAD     =           0.0000         CONSTANT HEAD     =           0.0000
     HEAD DEP BOUNDS     =     4658603.5000       HEAD DEP BOUNDS     =           0.2858
      STREAM LEAKAGE     =   201018400.0000        STREAM LEAKAGE     =          12.7219
        UZF RECHARGE     =       73223.9531          UZF RECHARGE     =           0.0000
               GW ET     =           0.0000                 GW ET     =           0.0000
     SURFACE LEAKAGE     =           0.0000       SURFACE LEAKAGE     =           0.0000
           AG WELLS      =           0.0000             AG WELLS      =           0.0000

                TOTAL IN =   326200000.0000                  TOTAL IN =          72.6490

          OUT:                                     OUT:
          ----                                     ----
             STORAGE     =    34408156.0000               STORAGE     =           1.1560
       CONSTANT HEAD     =           0.0000         CONSTANT HEAD     =           0.0000
     HEAD DEP BOUNDS     =     4771596.5000       HEAD DEP BOUNDS     =           0.2963
      STREAM LEAKAGE     =   168530992.0000        STREAM LEAKAGE     =          10.2724
        UZF RECHARGE     =           0.0000          UZF RECHARGE     =           0.0000
               GW ET     =     3677310.5000                 GW ET     =           0.9545
     SURFACE LEAKAGE     =           0.0000       SURFACE LEAKAGE     =           0.0000
           AG WELLS      =   114813248.0000             AG WELLS      =          59.9700

               TOTAL OUT =   326201312.0000                 TOTAL OUT =          72.6492

                IN - OUT =       -1312.0000                  IN - OUT =      -2.1362E-04

     PERCENT DISCREPANCY =          -0.00         PERCENT DISCREPANCY =          -0.00






         TIME SUMMARY AT END OF TIME STEP    5 IN STRESS PERIOD    8
                    SECONDS     MINUTES      HOURS       DAYS        YEARS
                    -----------------------------------------------------------
   TIME STEP LENGTH  87667.      1461.1      24.352      1.0147     2.77799E-03
 STRESS PERIOD TIME 4.38333E+05  7305.6      121.76      5.0733     1.38899E-02
         TOTAL TIME 1.63048E+07 2.71746E+05  4529.1      188.71     0.51667    
1
 
 SOLVING FOR HEAD 
                                                   Max.-Head-Change                         Max.-Flux-Residual
  Residual-Control   Outer-Iter.   Inner-Iter.     Column Row Layer    Maximum-Head-Change  Column Row Layer    Maximum-Flux-Residual          L2-NORM 
          0                 1           2             4    7     1      -0.1619469630E+00       4    7    1        -0.8480631777E+01      0.1913228668E+02
          0                 2           2             4    7     1       0.1575268241E-01       4    7    1         0.8480404226E+00      0.1913193916E+01
          0                 3           2             4    7     1      -0.1072702608E-02       4    7    1        -0.5936307050E-01      0.1339235530E+00
          0                 4           1             4    7     1       0.4268382505E-04       4    7    1         0.2427951967E-02      0.5477455982E-02

    ------------------------------------------------
       NWT REQUIRED            4 OUTER ITERATIONS 
       AND A TOTAL OF          7 INNER ITERATIONS.
    ------------------------------------------------

 NO OUTPUT CONTROL FOR STRESS PERIOD    8   TIME STEP    6
 
 SOLVING FOR HEAD 
                                                   Max.-Head-Change                         Max.-Flux-Residual
  Residual-Control   Outer-Iter.   Inner-Iter.     Column Row Layer    Maximum-Head-Change  Column Row Layer    Maximum-Flux-Residual          L2-NORM 
          0                 1           2             4    7     1      -0.1606494563E+00       4    7    1        -0.8414602249E+01      0.1888383336E+02
          0                 2           2             4    7     1       0.1562646288E-01       4    7    1         0.8414369536E+00      0.1888350324E+01
          0                 3           2             4    7     1      -0.1064107599E-02       4    7    1        -0.5890083236E-01      0.1321846341E+00
          0                 4           1             4    7     1       0.4234182136E-04       4    7    1         0.2409046376E-02      0.5406347194E-02

    ------------------------------------------------
       NWT REQUIRED            4 OUTER ITERATIONS 
       AND A TOTAL OF          7 INNER ITERATIONS.
    ------------------------------------------------

 NO OUTPUT CONTROL FOR STRESS PERIOD    8   TIME STEP    7
 
 SOLVING FOR HEAD 
                                                   Max.-Head-Change                         Max.-Flux-Residual
  Residual-Control   Outer-Iter.   Inner-Iter.     Column Row Layer    Maximum-Head-Change  Column Row Layer    Maximum-Flux-Residual          L2-NORM 
          0                 1           2             4    7     1      -0.1593286847E+00       4    7    1        -0.8347181961E+01      0.1864553282E+02
          0                 2           2             4    7     1       0.1549798165E-01       4    7    1         0.8346944985E+00      0.1864521409E+01
          0                 3           2             4    7     1      -0.1055358564E-02       4    7    1        -0.5842886433E-01      0.1305166823E+00
          0                 4           1             4    7     1       0.4199368908E-04       4    7    1         0.2389742846E-02      0.5338125645E-02

    ------------------------------------------------
       NWT REQUIRED            4 OUTER ITERATIONS 
       AND A TOTAL OF          7 INNER ITERATIONS.
    ------------------------------------------------

 NO OUTPUT CONTROL FOR STRESS PERIOD    8   TIME STEP    8
 
 SOLVING FOR HEAD 
                                                   Max.-Head-Change                         Max.-Flux-Residual
  Residual-Control   Outer-Iter.   Inner-Iter.     Column Row Layer    Maximum-Head-Change  Column Row Layer    Maximum-Flux-Residual          L2-NORM 
          0                 1           2             4    7     1      -0.1579878440E+00       4    7    1        -0.8278548129E+01      0.1841664257E+02
          0                 2           2             4    7     1       0.1536754871E-01       4    7    1         0.8278307717E+00      0.1841613416E+01
          0                 3           2             4    7     1      -0.1046476613E-02       4    7    1        -0.5794840652E-01      0.1289131702E+00
          0                 4           1             4    7     1       0.4164026749E-04       4    7    1         0.2370092070E-02      0.5272552276E-02

    ------------------------------------------------
       NWT REQUIRED            4 OUTER ITERATIONS 
       AND A TOTAL OF          7 INNER ITERATIONS.
    ------------------------------------------------

 NO OUTPUT CONTROL FOR STRESS PERIOD    8   TIME STEP    9
 
 SOLVING FOR HEAD 
                                                   Max.-Head-Change                         Max.-Flux-Residual
  Residual-Control   Outer-Iter.   Inner-Iter.     Column Row Layer    Maximum-Head-Change  Column Row Layer    Maximum-Flux-Residual          L2-NORM 
          0                 1           2             4    7     1      -0.1566300507E+00       4    7    1        -0.8208873849E+01      0.1819653810E+02
          0                 2           2             4    7     1       0.1523546936E-01       4    7    1         0.8208630756E+00      0.1819623526E+01
          0                 3           2             4    7     1      -0.1037482536E-02       4    7    1        -0.5746067011E-01      0.1273739086E+00
          0                 4           1             4    7     1       0.4128238471E-04       4    7    1         0.2350143617E-02      0.5209590194E-02

    ------------------------------------------------
       NWT REQUIRED            4 OUTER ITERATIONS 
       AND A TOTAL OF          7 INNER ITERATIONS.
    ------------------------------------------------

 OUTPUT CONTROL FOR STRESS PERIOD    8   TIME STEP   10
    PRINT BUDGET
    SAVE BUDGET
 UBDSV1 SAVING "         STORAGE" ON UNIT 102 AT TIME STEP 10, STRESS PERIOD 8
 UBDSV2 SAVING "   CONSTANT HEAD" ON UNIT 102 AT TIME STEP 10, STRESS PERIOD 8
 UBDSV1 SAVING "FLOW RIGHT FACE " ON UNIT 102 AT TIME STEP 10, STRESS PERIOD 8
 UBDSV1 SAVING "FLOW FRONT FACE " ON UNIT 102 AT TIME STEP 10, STRESS PERIOD 8

  HEAD DEP BOUNDS   PERIOD    8   STEP    10
 BOUNDARY      1   LAYER   1   ROW    13   COL     1   RATE   -0.296128    
 BOUNDARY      2   LAYER   1   ROW    14   COL     9   RATE    0.285759    



 STREAM LISTING     PERIOD      8   STEP       10

 LAYER ROW COL. STREAM  RCH.  FLOW INTO     FLOW TO   FLOW OUT OF   OVRLND.     DIRECT     STREAM       STREAM     STREAM     STREAM   STREAMBED  STREAMBED
                SEG.NO.  NO.  STRM. RCH.    AQUIFER    STRM. RCH.    RUNOFF     PRECIP       ET          HEAD       DEPTH      WIDTH   CONDCTNC.   GRADIENT

   1    1    1     1     1    5.6250E+01  3.5875E-01   5.5891E+01  0.000E+00  0.000E+00  0.000E+00  1.09453E+03  1.479E+00  1.780E+01  8.010E-02  1.493E+00
   1    2    2     1     2    5.5891E+01  5.5550E-01   5.5336E+01  0.000E+00  0.000E+00  0.000E+00  1.08953E+03  1.473E+00  1.774E+01  1.242E-01  1.491E+00
   1    3    3     1     3    5.5336E+01  4.7368E-01   5.4862E+01  0.000E+00  0.000E+00  0.000E+00  1.08389E+03  1.467E+00  1.767E+01  1.060E-01  1.489E+00
   1    3    4     1     4    5.4862E+01  4.3613E-01   5.4426E+01  0.000E+00  0.000E+00  0.000E+00  1.07887E+03  1.461E+00  1.762E+01  9.777E-02  1.487E+00
   1    4    5     2     1    5.2426E+01  3.8056E-01   5.2046E+01  0.000E+00  0.000E+00  0.000E+00  1.07381E+03  1.879E+00  1.200E+01  7.800E-02  1.626E+00
   1    5    6     2     2    5.2046E+01  2.9230E-01   5.1753E+01  0.000E+00  0.000E+00  0.000E+00  1.06838E+03  1.872E+00  1.200E+01  6.000E-02  1.624E+00
   1    6    6     2     3    5.1753E+01  2.9192E-01   5.1461E+01  0.000E+00  0.000E+00  0.000E+00  1.06366E+03  1.865E+00  1.200E+01  6.000E-02  1.622E+00
   1    7    6     2     4    5.1461E+01  2.9154E-01   5.1170E+01  0.000E+00  0.000E+00  0.000E+00  1.05893E+03  1.859E+00  1.200E+01  6.000E-02  1.620E+00
   1    8    6     2     5    5.1170E+01  2.9116E-01   5.0879E+01  0.000E+00  0.000E+00  0.000E+00  1.05421E+03  1.853E+00  1.200E+01  6.000E-02  1.618E+00
   1    3    5     3     1    2.0000E+00  2.8252E-01   1.7175E+00  0.000E+00  0.000E+00  0.000E+00  1.07555E+03  1.909E+00  9.636E+00  7.227E-02  1.955E+00
   1    3    6     3     2    1.7175E+00  2.4905E-01   1.4684E+00  0.000E+00  0.000E+00  0.000E+00  1.07264E+03  1.727E+00  8.909E+00  6.682E-02  1.864E+00
   1    3    7     3     3    1.4684E+00  1.9718E-01   1.2712E+00  0.000E+00  0.000E+00  0.000E+00  1.06987E+03  1.555E+00  8.218E+00  5.547E-02  1.777E+00
   1    4    8     3     4    1.2712E+00  2.2567E-01   1.0456E+00  0.000E+00  0.000E+00  0.000E+00  1.06682E+03  1.364E+00  7.455E+00  6.709E-02  1.682E+00
   1    5    8     3     5    1.0456E+00  1.5790E-01   8.8768E-01  0.000E+00  0.000E+00  0.000E+00  1.06362E+03  1.164E+00  6.655E+00  4.991E-02  1.582E+00
   1    6    8     3     6    8.8768E-01  5.5980E-02   8.3170E-01  0.000E+00  0.000E+00  0.000E+00  1.06158E+03  1.036E+00  6.145E+00  1.844E-02  1.518E+00
   1    5   10     4     1    1.0000E+01  9.0919E-02   9.9091E+00  0.000E+00  0.000E+00  0.000E+00  1.07836E+03  6.368E-01  1.000E+01  2.500E-02  1.212E+00
   1    5    9     4     2    9.9091E+00  1.8158E-01   9.7275E+00  0.000E+00  0.000E+00  0.000E+00  1.07154E+03  6.315E-01  1.000E+01  5.000E-02  1.211E+00
   1    6    8     4     3    9.7275E+00  1.2689E-01   9.6006E+00  0.000E+00  0.000E+00  0.000E+00  1.06381E+03  6.256E-01  1.000E+01  3.500E-02  1.209E+00
   1    6    8     5     1    1.0432E+01  2.2686E-01   1.0205E+01  0.000E+00  0.000E+00  0.000E+00  1.05868E+03  6.790E-01  1.542E+01  6.166E-02  1.226E+00
   1    7    7     5     2    1.0205E+01  2.7894E-01   9.9265E+00  0.000E+00  0.000E+00  0.000E+00  1.05417E+03  6.732E-01  1.519E+01  7.594E-02  1.224E+00
   1    8    7     5     3    9.9265E+00  1.9221E-01   9.7343E+00  0.000E+00  0.000E+00  0.000E+00  1.04992E+03  6.676E-01  1.497E+01  5.241E-02  1.223E+00
   1    8    6     5     4    9.7343E+00  1.3577E-01   9.5985E+00  0.000E+00  0.000E+00  0.000E+00  1.04691E+03  6.637E-01  1.482E+01  3.706E-02  1.221E+00
   1    9    6     6     1    6.0477E+01  3.0429E-01   6.0173E+01  0.000E+00  0.000E+00  0.000E+00  1.04480E+03  2.071E+00  1.200E+01  6.000E-02  1.690E+00
   1   10    7     6     2    6.0173E+01  3.0391E-01   5.9869E+01  0.000E+00  0.000E+00  0.000E+00  1.04025E+03  2.065E+00  1.200E+01  6.000E-02  1.688E+00
   1   11    7     6     3    5.9869E+01  3.0353E-01   5.9565E+01  0.000E+00  0.000E+00  0.000E+00  1.03570E+03  2.059E+00  1.200E+01  6.000E-02  1.686E+00
   1   12    7     6     4    5.9565E+01  3.0316E-01   5.9262E+01  0.000E+00  0.000E+00  0.000E+00  1.03114E+03  2.053E+00  1.200E+01  6.000E-02  1.684E+00
   1   13    7     6     5    5.9262E+01  1.8630E-02   5.9244E+01  0.000E+00  0.000E+00  0.000E+00  1.02796E+03  2.049E+00  1.200E+01  2.400E-02  2.588E-01
   1   14    9     7     1    1.5000E+02  1.3358E+00   1.4866E+02  0.000E+00  0.000E+00  0.000E+00  1.03987E+03  2.288E+00  5.529E+01  5.593E-01  7.961E-01
   1   13    8     7     2    1.4866E+02  1.8155E+00   1.4685E+02  0.000E+00  0.000E+00  0.000E+00  1.03478E+03  2.279E+00  5.526E+01  6.148E-01  9.844E-01
   1   13    7     7     3    1.4685E+02  1.4006E+00   1.4545E+02  0.000E+00  0.000E+00  0.000E+00  1.02969E+03  2.271E+00  5.522E+01  5.585E-01  8.360E-01
   1   13    6     8     1    2.0469E+02  9.8030E-01   2.0371E+02  0.000E+00  0.000E+00  0.000E+00  1.02504E+03  3.162E+00  4.585E+01  4.673E-01  6.993E-01
   1   13    5     8     2    2.0371E+02  1.8168E-01   2.0353E+02  0.000E+00  0.000E+00  0.000E+00  1.01878E+03  3.159E+00  4.580E+01  4.668E-01  1.297E-01
   1   13    4     8     3    2.0353E+02 -2.2408E+00   2.0577E+02  0.000E+00  0.000E+00  0.000E+00  1.01254E+03  3.165E+00  4.589E+01  4.676E+00 -1.597E-01
   1   13    3     8     4    2.0577E+02 -3.3636E+00   2.0913E+02  0.000E+00  0.000E+00  0.000E+00  1.00631E+03  3.181E+00  4.613E+01  4.700E+00 -2.385E-01
   1   13    2     8     5    2.0913E+02 -2.5825E+00   2.1172E+02  0.000E+00  0.000E+00  0.000E+00  1.00007E+03  3.198E+00  4.637E+01  4.725E+00 -1.822E-01
   1   13    1     8     6    2.1172E+02 -2.0119E+00   2.1373E+02  0.000E+00  0.000E+00  0.000E+00  9.95086E+02  3.211E+00  4.656E+01  2.847E+00 -2.356E-01
   1    8    6     9     1    0.0000E+00  0.0000E+00   0.0000E+00  0.000E+00  0.000E+00  0.000E+00  1.07875E+03  0.000E+00  4.000E+00  0.000E+00  1.000E+00
   1    8    5     9     2    0.0000E+00  0.0000E+00   0.0000E+00  0.000E+00  0.000E+00  0.000E+00  1.07825E+03  0.000E+00  4.000E+00  0.000E+00  1.000E+00



 UBDSV3 SAVING "           GW ET" ON UNIT  61 AT TIME STEP 10, STRESS PERIOD 8
 UBDSV3 SAVING "    UZF RECHARGE" ON UNIT  61 AT TIME STEP 10, STRESS PERIOD 8
 UBDSV3 SAVING " SURFACE LEAKAGE" ON UNIT  61 AT TIME STEP 10, STRESS PERIOD 8
 UBDSV3 SAVING "       HORT+DUNN" ON UNIT  61 AT TIME STEP 10, STRESS PERIOD 8
 UBDSV3 SAVING "  STORAGE CHANGE" ON UNIT  61 AT TIME STEP 10, STRESS PERIOD 8


UNSATURATED ZONE PACKAGE VOLUMETRIC BUDGET FOR  TIME STEP    10 STRESS PERIOD    8
  ------------------------------------------------------------------------------



     CUMULATIVE VOLUMES      L**3       RATES FOR THIS TIME STEP      L**3/T
     ------------------                 ------------------------

           IN:                                      IN:
           ---                                      ---
        INFILTRATION =   155289794.0734          INFILTRATION =          60.8175

          OUT:                                     OUT:
          ----                                     ----
              UZF ET =   155132210.7096                UZF ET =          60.8175
        UZF RECHARGE =       73224.0000          UZF RECHARGE =       0.0000E+00

            IN - OUT =       84359.3638              IN - OUT =       0.0000E+00

          STORAGE:                                 STORAGE:
          --------                                 --------
      STORAGE CHANGE =       84359.1881        STORAGE CHANGE =       4.1498E-17

 PERCENT DISCREPANCY IS DIFFERENCE BETWEEN IN-OUT MINUS CHANGE IN STORAGE
 DIVIDED BY THE AVERAGE OF IN AND OUT TIMES 100

 PERCENT DISCREPANCY =           0.00     PERCENT DISCREPANCY =           0.00






 

            AG WELLS      PERIOD    8   STEP  10
 AG WELL      1   LAYER   1   ROW     6   COL     4   RATE    -9.99500    
 AG WELL      2   LAYER   1   ROW     6   COL     5   RATE    -9.99500    
 AG WELL      3   LAYER   1   ROW     7   COL     4   RATE    -9.99500    
 AG WELL      4   LAYER   1   ROW     7   COL     5   RATE    -9.99500    
 AG WELL      5   LAYER   1   ROW     8   COL     4   RATE    -9.99500    
 AG WELL      6   LAYER   1   ROW     8   COL     5   RATE    -9.99500    
 
 

   DIVERSION SEGMENTS     PERIOD    8   STEP  10
 SEGMENT      9   RATE     0.00000    
 
 

        SW IRRIGATION     PERIOD    8   STEP  10
 SEGMENT      9   ROW     6   COL     4   RATE     0.00000    
 SEGMENT      9   ROW     6   COL     5   RATE     0.00000    
 SEGMENT      9   ROW     7   COL     4   RATE     0.00000    
 SEGMENT      9   ROW     7   COL     5   RATE     0.00000    
 SEGMENT      9   ROW     8   COL     4   RATE     0.00000    
 SEGMENT      9   ROW     8   COL     5   RATE     0.00000    
 
 

        GW IRRIGATION     PERIOD    8   STEP  10
 AG WELL      1   ROW     6   COL     4   RATE     9.99500    
 AG WELL      2   ROW     6   COL     5   RATE     9.99500    
 AG WELL      3   ROW     7   COL     4   RATE     9.99500    
 AG WELL      4   ROW     7   COL     5   RATE     9.99500    
 AG WELL      5   ROW     8   COL     4   RATE     9.99500    
 AG WELL      6   ROW     8   COL     5   RATE     9.99500    
 
1
  VOLUMETRIC BUDGET FOR AGRICULTURAL FIELDS AT  END OF TIME STEP   10, STRESS PERIOD   8
  ------------------------------------------------------------------------------

     CUMULATIVE VOLUMES      L**3       RATES FOR THIS TIME STEP      L**3/T
     ------------------                 ------------------------

           IN:                                      IN:
           ---                                      ---
               AG WELLS  =   141100096.0000                 AG WELLS  =          59.9700
      DIVERSION SEGMENTS =           0.0000        DIVERSION SEGMENTS =           0.0000
       IRRIGATION PONDS  =           0.0000         IRRIGATION PONDS  =           0.0000
           GW IRRIGATION =           0.0000             GW IRRIGATION =           0.0000
           SW IRRIGATION =           0.0000             SW IRRIGATION =           0.0000
        SYSTEM LOSSES GW =           0.0000          SYSTEM LOSSES GW =           0.0000
        SYSTEM LOSSES SW =           0.0000          SYSTEM LOSSES SW =           0.0000

                TOTAL IN =   141100096.0000                  TOTAL IN =          59.9700

          OUT:                                     OUT:
          ----                                     ----
               AG WELLS  =           0.0000                 AG WELLS  =           0.0000
      DIVERSION SEGMENTS =           0.0000        DIVERSION SEGMENTS =           0.0000
       IRRIGATION PONDS  =           0.0000         IRRIGATION PONDS  =           0.0000
           GW IRRIGATION =   141100096.0000             GW IRRIGATION =          59.9700
           SW IRRIGATION =           0.0000             SW IRRIGATION =           0.0000
        SYSTEM LOSSES GW =           0.0000          SYSTEM LOSSES GW =           0.0000
        SYSTEM LOSSES SW =           0.0000          SYSTEM LOSSES SW =           0.0000

               TOTAL OUT =   141100096.0000                 TOTAL OUT =          59.9700

                IN - OUT =           0.0000                  IN - OUT =           0.0000

     PERCENT DISCREPANCY =           0.00         PERCENT DISCREPANCY =           0.00



1
  VOLUMETRIC BUDGET FOR ENTIRE MODEL AT END OF TIME STEP   10, STRESS PERIOD   8
  ------------------------------------------------------------------------------

     CUMULATIVE VOLUMES      L**3       RATES FOR THIS TIME STEP      L**3/T
     ------------------                 ------------------------

           IN:                                      IN:
           ---                                      ---
             STORAGE     =   146511456.0000               STORAGE     =          59.3751
       CONSTANT HEAD     =           0.0000         CONSTANT HEAD     =           0.0000
     HEAD DEP BOUNDS     =     4783861.0000       HEAD DEP BOUNDS     =           0.2858
      STREAM LEAKAGE     =   206594464.0000        STREAM LEAKAGE     =          12.7205
        UZF RECHARGE     =       73223.9531          UZF RECHARGE     =           0.0000
               GW ET     =           0.0000                 GW ET     =           0.0000
     SURFACE LEAKAGE     =           0.0000       SURFACE LEAKAGE     =           0.0000
           AG WELLS      =           0.0000             AG WELLS      =           0.0000

                TOTAL IN =   357963008.0000                  TOTAL IN =          72.3814

          OUT:                                     OUT:
          ----                                     ----
             STORAGE     =    34900628.0000               STORAGE     =           1.1025
       CONSTANT HEAD     =           0.0000         CONSTANT HEAD     =           0.0000
     HEAD DEP BOUNDS     =     4901429.0000       HEAD DEP BOUNDS     =           0.2961
      STREAM LEAKAGE     =   173011920.0000        STREAM LEAKAGE     =          10.1988
        UZF RECHARGE     =           0.0000          UZF RECHARGE     =           0.0000
               GW ET     =     4050302.5000                 GW ET     =           0.8142
     SURFACE LEAKAGE     =           0.0000       SURFACE LEAKAGE     =           0.0000
           AG WELLS      =   141100096.0000             AG WELLS      =          59.9700

               TOTAL OUT =   357964384.0000                 TOTAL OUT =          72.3816

                IN - OUT =       -1376.0000                  IN - OUT =      -2.1362E-04

     PERCENT DISCREPANCY =          -0.00         PERCENT DISCREPANCY =          -0.00






         TIME SUMMARY AT END OF TIME STEP   10 IN STRESS PERIOD    8
                    SECONDS     MINUTES      HOURS       DAYS        YEARS
                    -----------------------------------------------------------
   TIME STEP LENGTH  87667.      1461.1      24.352      1.0147     2.77799E-03
 STRESS PERIOD TIME 8.76667E+05  14611.      243.52      10.147     2.77799E-02
         TOTAL TIME 1.67431E+07 2.79052E+05  4650.9      193.79     0.53056    
1
 
 SOLVING FOR HEAD 
                                                   Max.-Head-Change                         Max.-Flux-Residual
  Residual-Control   Outer-Iter.   Inner-Iter.     Column Row Layer    Maximum-Head-Change  Column Row Layer    Maximum-Flux-Residual          L2-NORM 
          0                 1           2             4    7     1      -0.1552582067E+00       4    7    1        -0.8138320599E+01      0.1798467261E+02
          0                 2           2             4    7     1       0.1510202353E-01       4    7    1         0.8138075516E+00      0.1798437619E+01
          0                 3           2             4    7     1      -0.1028395397E-02       4    7    1        -0.5696678508E-01      0.1258909073E+00
          0                 4           1             4    7     1       0.4092079920E-04       4    7    1         0.2329943691E-02      0.5148938924E-02

    ------------------------------------------------
       NWT REQUIRED            4 OUTER ITERATIONS 
       AND A TOTAL OF          7 INNER ITERATIONS.
    ------------------------------------------------

 NO OUTPUT CONTROL FOR STRESS PERIOD    8   TIME STEP   11
 
 SOLVING FOR HEAD 
                                                   Max.-Head-Change                         Max.-Flux-Residual
  Residual-Control   Outer-Iter.   Inner-Iter.     Column Row Layer    Maximum-Head-Change  Column Row Layer    Maximum-Flux-Residual          L2-NORM 
          0                 1           2             4    7     1      -0.1538750117E+00       4    7    1        -0.8067038967E+01      0.1778049643E+02
          0                 2           2             4    7     1       0.1496747449E-01       4    7    1         0.8066792523E+00      0.1778020568E+01
          0                 3           2             4    7     1      -0.1019233125E-02       4    7    1        -0.5646780522E-01      0.1244617212E+00
          0                 4           1             4    7     1       0.4055622313E-04       4    7    1         0.2309535368E-02      0.5090486215E-02

    ------------------------------------------------
       NWT REQUIRED            4 OUTER ITERATIONS 
       AND A TOTAL OF          7 INNER ITERATIONS.
    ------------------------------------------------

 NO OUTPUT CONTROL FOR STRESS PERIOD    8   TIME STEP   12
 
 SOLVING FOR HEAD 
                                                   Max.-Head-Change                         Max.-Flux-Residual
  Residual-Control   Outer-Iter.   Inner-Iter.     Column Row Layer    Maximum-Head-Change  Column Row Layer    Maximum-Flux-Residual          L2-NORM 
          0                 1           2             4    7     1      -0.1524827056E+00       4    7    1        -0.7995154205E+01      0.1758354255E+02
          0                 2           2             4    7     1       0.1483204003E-01       4    7    1         0.7994906976E+00      0.1758325725E+01
          0                 3           2             4    7     1      -0.1010010551E-02       4    7    1        -0.5596460692E-01      0.1230830817E+00
          0                 4           1             4    7     1       0.4018924849E-04       4    7    1         0.2288954537E-02      0.5034100560E-02

    ------------------------------------------------
       NWT REQUIRED            4 OUTER ITERATIONS 
       AND A TOTAL OF          7 INNER ITERATIONS.
    ------------------------------------------------

 NO OUTPUT CONTROL FOR STRESS PERIOD    8   TIME STEP   13
 
 SOLVING FOR HEAD 
                                                   Max.-Head-Change                         Max.-Flux-Residual
  Residual-Control   Outer-Iter.   Inner-Iter.     Column Row Layer    Maximum-Head-Change  Column Row Layer    Maximum-Flux-Residual          L2-NORM 
          0                 1           2             4    7     1      -0.1510840290E+00       4    7    1        -0.7922819172E+01      0.1739339014E+02
          0                 2           2             4    7     1       0.1469598666E-01       4    7    1         0.7922571675E+00      0.1739311028E+01
          0                 3           2             4    7     1      -0.1000745823E-02       4    7    1        -0.5545825985E-01      0.1217520594E+00
          0                 4           1             4    7     1       0.3982059656E-04       4    7    1         0.2268244910E-02      0.4979663795E-02

    ------------------------------------------------
       NWT REQUIRED            4 OUTER ITERATIONS 
       AND A TOTAL OF          7 INNER ITERATIONS.
    ------------------------------------------------

 NO OUTPUT CONTROL FOR STRESS PERIOD    8   TIME STEP   14
 
 SOLVING FOR HEAD 
                                                   Max.-Head-Change                         Max.-Flux-Residual
  Residual-Control   Outer-Iter.   Inner-Iter.     Column Row Layer    Maximum-Head-Change  Column Row Layer    Maximum-Flux-Residual          L2-NORM 
          0                 1           2             4    7     1      -0.1496807254E+00       4    7    1        -0.7850131915E+01      0.1720964349E+02
          0                 2           2             4    7     1       0.1455948390E-01       4    7    1         0.7849884623E+00      0.1720936895E+01
          0                 3           2             4    7     1      -0.9914504871E-03       4    7    1        -0.5494945006E-01      0.1204658694E+00
          0                 4           1             4    7     1       0.3945072623E-04       4    7    1         0.2247434560E-02      0.4927058079E-02

    ------------------------------------------------
       NWT REQUIRED            4 OUTER ITERATIONS 
       AND A TOTAL OF          7 INNER ITERATIONS.
    ------------------------------------------------

 OUTPUT CONTROL FOR STRESS PERIOD    8   TIME STEP   15
    PRINT BUDGET
    SAVE BUDGET
 UBDSV1 SAVING "         STORAGE" ON UNIT 102 AT TIME STEP 15, STRESS PERIOD 8
 UBDSV2 SAVING "   CONSTANT HEAD" ON UNIT 102 AT TIME STEP 15, STRESS PERIOD 8
 UBDSV1 SAVING "FLOW RIGHT FACE " ON UNIT 102 AT TIME STEP 15, STRESS PERIOD 8
 UBDSV1 SAVING "FLOW FRONT FACE " ON UNIT 102 AT TIME STEP 15, STRESS PERIOD 8

  HEAD DEP BOUNDS   PERIOD    8   STEP    15
 BOUNDARY      1   LAYER   1   ROW    13   COL     1   RATE   -0.295988    
 BOUNDARY      2   LAYER   1   ROW    14   COL     9   RATE    0.285758    



 STREAM LISTING     PERIOD      8   STEP       15

 LAYER ROW COL. STREAM  RCH.  FLOW INTO     FLOW TO   FLOW OUT OF   OVRLND.     DIRECT     STREAM       STREAM     STREAM     STREAM   STREAMBED  STREAMBED
                SEG.NO.  NO.  STRM. RCH.    AQUIFER    STRM. RCH.    RUNOFF     PRECIP       ET          HEAD       DEPTH      WIDTH   CONDCTNC.   GRADIENT

   1    1    1     1     1    5.6250E+01  3.5874E-01   5.5891E+01  0.000E+00  0.000E+00  0.000E+00  1.09453E+03  1.479E+00  1.780E+01  8.010E-02  1.493E+00
   1    2    2     1     2    5.5891E+01  5.5550E-01   5.5335E+01  0.000E+00  0.000E+00  0.000E+00  1.08953E+03  1.473E+00  1.774E+01  1.242E-01  1.491E+00
   1    3    3     1     3    5.5335E+01  4.7368E-01   5.4862E+01  0.000E+00  0.000E+00  0.000E+00  1.08389E+03  1.467E+00  1.767E+01  1.060E-01  1.489E+00
   1    3    4     1     4    5.4862E+01  4.3613E-01   5.4426E+01  0.000E+00  0.000E+00  0.000E+00  1.07887E+03  1.461E+00  1.762E+01  9.777E-02  1.487E+00
   1    4    5     2     1    5.2426E+01  3.8056E-01   5.2045E+01  0.000E+00  0.000E+00  0.000E+00  1.07381E+03  1.879E+00  1.200E+01  7.800E-02  1.626E+00
   1    5    6     2     2    5.2045E+01  2.9230E-01   5.1753E+01  0.000E+00  0.000E+00  0.000E+00  1.06838E+03  1.872E+00  1.200E+01  6.000E-02  1.624E+00
   1    6    6     2     3    5.1753E+01  2.9192E-01   5.1461E+01  0.000E+00  0.000E+00  0.000E+00  1.06366E+03  1.865E+00  1.200E+01  6.000E-02  1.622E+00
   1    7    6     2     4    5.1461E+01  2.9154E-01   5.1169E+01  0.000E+00  0.000E+00  0.000E+00  1.05893E+03  1.859E+00  1.200E+01  6.000E-02  1.620E+00
   1    8    6     2     5    5.1169E+01  2.9116E-01   5.0878E+01  0.000E+00  0.000E+00  0.000E+00  1.05421E+03  1.853E+00  1.200E+01  6.000E-02  1.618E+00
   1    3    5     3     1    2.0000E+00  2.8252E-01   1.7175E+00  0.000E+00  0.000E+00  0.000E+00  1.07555E+03  1.909E+00  9.636E+00  7.227E-02  1.955E+00
   1    3    6     3     2    1.7175E+00  2.4905E-01   1.4684E+00  0.000E+00  0.000E+00  0.000E+00  1.07264E+03  1.727E+00  8.909E+00  6.682E-02  1.864E+00
   1    3    7     3     3    1.4684E+00  1.9718E-01   1.2712E+00  0.000E+00  0.000E+00  0.000E+00  1.06987E+03  1.555E+00  8.218E+00  5.547E-02  1.777E+00
   1    4    8     3     4    1.2712E+00  2.2567E-01   1.0456E+00  0.000E+00  0.000E+00  0.000E+00  1.06682E+03  1.364E+00  7.455E+00  6.709E-02  1.682E+00
   1    5    8     3     5    1.0456E+00  1.5790E-01   8.8768E-01  0.000E+00  0.000E+00  0.000E+00  1.06362E+03  1.164E+00  6.655E+00  4.991E-02  1.582E+00
   1    6    8     3     6    8.8768E-01  5.5980E-02   8.3170E-01  0.000E+00  0.000E+00  0.000E+00  1.06158E+03  1.036E+00  6.145E+00  1.844E-02  1.518E+00
   1    5   10     4     1    1.0000E+01  9.0919E-02   9.9091E+00  0.000E+00  0.000E+00  0.000E+00  1.07836E+03  6.368E-01  1.000E+01  2.500E-02  1.212E+00
   1    5    9     4     2    9.9091E+00  1.8158E-01   9.7275E+00  0.000E+00  0.000E+00  0.000E+00  1.07154E+03  6.315E-01  1.000E+01  5.000E-02  1.211E+00
   1    6    8     4     3    9.7275E+00  1.2689E-01   9.6006E+00  0.000E+00  0.000E+00  0.000E+00  1.06381E+03  6.256E-01  1.000E+01  3.500E-02  1.209E+00
   1    6    8     5     1    1.0432E+01  2.2686E-01   1.0205E+01  0.000E+00  0.000E+00  0.000E+00  1.05868E+03  6.790E-01  1.542E+01  6.166E-02  1.226E+00
   1    7    7     5     2    1.0205E+01  2.7894E-01   9.9265E+00  0.000E+00  0.000E+00  0.000E+00  1.05417E+03  6.732E-01  1.519E+01  7.594E-02  1.224E+00
   1    8    7     5     3    9.9265E+00  1.9221E-01   9.7343E+00  0.000E+00  0.000E+00  0.000E+00  1.04992E+03  6.676E-01  1.497E+01  5.241E-02  1.223E+00
   1    8    6     5     4    9.7343E+00  1.3577E-01   9.5985E+00  0.000E+00  0.000E+00  0.000E+00  1.04691E+03  6.637E-01  1.482E+01  3.706E-02  1.221E+00
   1    9    6     6     1    6.0477E+01  3.0428E-01   6.0172E+01  0.000E+00  0.000E+00  0.000E+00  1.04480E+03  2.071E+00  1.200E+01  6.000E-02  1.690E+00
   1   10    7     6     2    6.0172E+01  3.0391E-01   5.9868E+01  0.000E+00  0.000E+00  0.000E+00  1.04025E+03  2.065E+00  1.200E+01  6.000E-02  1.688E+00
   1   11    7     6     3    5.9868E+01  3.0353E-01   5.9565E+01  0.000E+00  0.000E+00  0.000E+00  1.03570E+03  2.059E+00  1.200E+01  6.000E-02  1.686E+00
   1   12    7     6     4    5.9565E+01  3.0315E-01   5.9262E+01  0.000E+00  0.000E+00  0.000E+00  1.03114E+03  2.053E+00  1.200E+01  6.000E-02  1.684E+00
   1   13    7     6     5    5.9262E+01  1.8591E-02   5.9243E+01  0.000E+00  0.000E+00  0.000E+00  1.02796E+03  2.049E+00  1.200E+01  2.400E-02  2.582E-01
   1   14    9     7     1    1.5000E+02  1.3358E+00   1.4866E+02  0.000E+00  0.000E+00  0.000E+00  1.03987E+03  2.288E+00  5.529E+01  5.593E-01  7.961E-01
   1   13    8     7     2    1.4866E+02  1.8150E+00   1.4685E+02  0.000E+00  0.000E+00  0.000E+00  1.03478E+03  2.279E+00  5.526E+01  6.148E-01  9.841E-01
   1   13    7     7     3    1.4685E+02  1.3997E+00   1.4545E+02  0.000E+00  0.000E+00  0.000E+00  1.02969E+03  2.271E+00  5.522E+01  5.585E-01  8.355E-01
   1   13    6     8     1    2.0469E+02  9.8002E-01   2.0371E+02  0.000E+00  0.000E+00  0.000E+00  1.02504E+03  3.162E+00  4.585E+01  4.673E-01  6.991E-01
   1   13    5     8     2    2.0371E+02  1.8203E-01   2.0353E+02  0.000E+00  0.000E+00  0.000E+00  1.01878E+03  3.159E+00  4.580E+01  4.668E-01  1.300E-01
   1   13    4     8     3    2.0353E+02 -2.2383E+00   2.0577E+02  0.000E+00  0.000E+00  0.000E+00  1.01254E+03  3.165E+00  4.589E+01  4.676E+00 -1.595E-01
   1   13    3     8     4    2.0577E+02 -3.3606E+00   2.0913E+02  0.000E+00  0.000E+00  0.000E+00  1.00631E+03  3.181E+00  4.613E+01  4.700E+00 -2.383E-01
   1   13    2     8     5    2.0913E+02 -2.5636E+00   2.1169E+02  0.000E+00  0.000E+00  0.000E+00  1.00007E+03  3.198E+00  4.637E+01  4.725E+00 -1.808E-01
   1   13    1     8     6    2.1169E+02 -2.0018E+00   2.1369E+02  0.000E+00  0.000E+00  0.000E+00  9.95086E+02  3.211E+00  4.656E+01  2.847E+00 -2.344E-01
   1    8    6     9     1    0.0000E+00  0.0000E+00   0.0000E+00  0.000E+00  0.000E+00  0.000E+00  1.07875E+03  0.000E+00  4.000E+00  0.000E+00  1.000E+00
   1    8    5     9     2    0.0000E+00  0.0000E+00   0.0000E+00  0.000E+00  0.000E+00  0.000E+00  1.07825E+03  0.000E+00  4.000E+00  0.000E+00  1.000E+00



 UBDSV3 SAVING "           GW ET" ON UNIT  61 AT TIME STEP 15, STRESS PERIOD 8
 UBDSV3 SAVING "    UZF RECHARGE" ON UNIT  61 AT TIME STEP 15, STRESS PERIOD 8
 UBDSV3 SAVING " SURFACE LEAKAGE" ON UNIT  61 AT TIME STEP 15, STRESS PERIOD 8
 UBDSV3 SAVING "       HORT+DUNN" ON UNIT  61 AT TIME STEP 15, STRESS PERIOD 8
 UBDSV3 SAVING "  STORAGE CHANGE" ON UNIT  61 AT TIME STEP 15, STRESS PERIOD 8


UNSATURATED ZONE PACKAGE VOLUMETRIC BUDGET FOR  TIME STEP    15 STRESS PERIOD    8
  ------------------------------------------------------------------------------



     CUMULATIVE VOLUMES      L**3       RATES FOR THIS TIME STEP      L**3/T
     ------------------                 ------------------------

           IN:                                      IN:
           ---                                      ---
        INFILTRATION =   181948130.3028          INFILTRATION =          60.8175

          OUT:                                     OUT:
          ----                                     ----
              UZF ET =   181790546.9390                UZF ET =          60.8175
        UZF RECHARGE =       73224.0000          UZF RECHARGE =       0.0000E+00

            IN - OUT =       84359.3638              IN - OUT =       0.0000E+00

          STORAGE:                                 STORAGE:
          --------                                 --------
      STORAGE CHANGE =       84359.1881        STORAGE CHANGE =       0.0000E+00

 PERCENT DISCREPANCY IS DIFFERENCE BETWEEN IN-OUT MINUS CHANGE IN STORAGE
 DIVIDED BY THE AVERAGE OF IN AND OUT TIMES 100

 PERCENT DISCREPANCY =           0.00     PERCENT DISCREPANCY =           0.00






 

            AG WELLS      PERIOD    8   STEP  15
 AG WELL      1   LAYER   1   ROW     6   COL     4   RATE    -9.99500    
 AG WELL      2   LAYER   1   ROW     6   COL     5   RATE    -9.99500    
 AG WELL      3   LAYER   1   ROW     7   COL     4   RATE    -9.99500    
 AG WELL      4   LAYER   1   ROW     7   COL     5   RATE    -9.99500    
 AG WELL      5   LAYER   1   ROW     8   COL     4   RATE    -9.99500    
 AG WELL      6   LAYER   1   ROW     8   COL     5   RATE    -9.99500    
 
 

   DIVERSION SEGMENTS     PERIOD    8   STEP  15
 SEGMENT      9   RATE     0.00000    
 
 

        SW IRRIGATION     PERIOD    8   STEP  15
 SEGMENT      9   ROW     6   COL     4   RATE     0.00000    
 SEGMENT      9   ROW     6   COL     5   RATE     0.00000    
 SEGMENT      9   ROW     7   COL     4   RATE     0.00000    
 SEGMENT      9   ROW     7   COL     5   RATE     0.00000    
 SEGMENT      9   ROW     8   COL     4   RATE     0.00000    
 SEGMENT      9   ROW     8   COL     5   RATE     0.00000    
 
 

        GW IRRIGATION     PERIOD    8   STEP  15
 AG WELL      1   ROW     6   COL     4   RATE     9.99500    
 AG WELL      2   ROW     6   COL     5   RATE     9.99500    
 AG WELL      3   ROW     7   COL     4   RATE     9.99500    
 AG WELL      4   ROW     7   COL     5   RATE     9.99500    
 AG WELL      5   ROW     8   COL     4   RATE     9.99500    
 AG WELL      6   ROW     8   COL     5   RATE     9.99500    
 
1
  VOLUMETRIC BUDGET FOR AGRICULTURAL FIELDS AT  END OF TIME STEP   15, STRESS PERIOD   8
  ------------------------------------------------------------------------------

     CUMULATIVE VOLUMES      L**3       RATES FOR THIS TIME STEP      L**3/T
     ------------------                 ------------------------

           IN:                                      IN:
           ---                                      ---
               AG WELLS  =   167386976.0000                 AG WELLS  =          59.9700
      DIVERSION SEGMENTS =           0.0000        DIVERSION SEGMENTS =           0.0000
       IRRIGATION PONDS  =           0.0000         IRRIGATION PONDS  =           0.0000
           GW IRRIGATION =           0.0000             GW IRRIGATION =           0.0000
           SW IRRIGATION =           0.0000             SW IRRIGATION =           0.0000
        SYSTEM LOSSES GW =           0.0000          SYSTEM LOSSES GW =           0.0000
        SYSTEM LOSSES SW =           0.0000          SYSTEM LOSSES SW =           0.0000

                TOTAL IN =   167386976.0000                  TOTAL IN =          59.9700

          OUT:                                     OUT:
          ----                                     ----
               AG WELLS  =           0.0000                 AG WELLS  =           0.0000
      DIVERSION SEGMENTS =           0.0000        DIVERSION SEGMENTS =           0.0000
       IRRIGATION PONDS  =           0.0000         IRRIGATION PONDS  =           0.0000
           GW IRRIGATION =   167386976.0000             GW IRRIGATION =          59.9700
           SW IRRIGATION =           0.0000             SW IRRIGATION =           0.0000
        SYSTEM LOSSES GW =           0.0000          SYSTEM LOSSES GW =           0.0000
        SYSTEM LOSSES SW =           0.0000          SYSTEM LOSSES SW =           0.0000

               TOTAL OUT =   167386976.0000                 TOTAL OUT =          59.9700

                IN - OUT =           0.0000                  IN - OUT =           0.0000

     PERCENT DISCREPANCY =           0.00         PERCENT DISCREPANCY =           0.00



1
  VOLUMETRIC BUDGET FOR ENTIRE MODEL AT END OF TIME STEP   15, STRESS PERIOD   8
  ------------------------------------------------------------------------------

     CUMULATIVE VOLUMES      L**3       RATES FOR THIS TIME STEP      L**3/T
     ------------------                 ------------------------

           IN:                                      IN:
           ---                                      ---
             STORAGE     =   172506528.0000               STORAGE     =          59.2658
       CONSTANT HEAD     =           0.0000         CONSTANT HEAD     =           0.0000
     HEAD DEP BOUNDS     =     4909118.5000       HEAD DEP BOUNDS     =           0.2858
      STREAM LEAKAGE     =   212169888.0000        STREAM LEAKAGE     =          12.7190
        UZF RECHARGE     =       73223.9531          UZF RECHARGE     =           0.0000
               GW ET     =           0.0000                 GW ET     =           0.0000
     SURFACE LEAKAGE     =           0.0000       SURFACE LEAKAGE     =           0.0000
           AG WELLS      =           0.0000             AG WELLS      =           0.0000

                TOTAL IN =   389658752.0000                  TOTAL IN =          72.2706

          OUT:                                     OUT:
          ----                                     ----
             STORAGE     =    35369952.0000               STORAGE     =           1.0504
       CONSTANT HEAD     =           0.0000         CONSTANT HEAD     =           0.0000
     HEAD DEP BOUNDS     =     5031194.5000       HEAD DEP BOUNDS     =           0.2960
      STREAM LEAKAGE     =   177472640.0000        STREAM LEAKAGE     =          10.1643
        UZF RECHARGE     =           0.0000          UZF RECHARGE     =           0.0000
               GW ET     =     4399527.5000                 GW ET     =           0.7901
     SURFACE LEAKAGE     =           0.0000       SURFACE LEAKAGE     =           0.0000
           AG WELLS      =   167386976.0000             AG WELLS      =          59.9700

               TOTAL OUT =   389660288.0000                 TOTAL OUT =          72.2708

                IN - OUT =       -1536.0000                  IN - OUT =      -2.1362E-04

     PERCENT DISCREPANCY =          -0.00         PERCENT DISCREPANCY =          -0.00






         TIME SUMMARY AT END OF TIME STEP   15 IN STRESS PERIOD    8
                    SECONDS     MINUTES      HOURS       DAYS        YEARS
                    -----------------------------------------------------------
   TIME STEP LENGTH  87667.      1461.1      24.352      1.0147     2.77799E-03
 STRESS PERIOD TIME 1.31500E+06  21917.      365.28      15.220     4.16698E-02
         TOTAL TIME 1.71814E+07 2.86357E+05  4772.6      198.86     0.54445    
1
 
 SOLVING FOR HEAD 
                                                   Max.-Head-Change                         Max.-Flux-Residual
  Residual-Control   Outer-Iter.   Inner-Iter.     Column Row Layer    Maximum-Head-Change  Column Row Layer    Maximum-Flux-Residual          L2-NORM 
          0                 1           2             4    7     1      -0.1482749276E+00       4    7    1        -0.7777212206E+01      0.1703193862E+02
          0                 2           2             4    7     1       0.1442273915E-01       4    7    1         0.7776965544E+00      0.1703166937E+01
          0                 3           2             4    7     1      -0.9821386662E-03       4    7    1        -0.5443901569E-01      0.1192219739E+00
          0                 4           1             4    7     1       0.3908019991E-04       4    7    1         0.2226557750E-02      0.4876182926E-02

    ------------------------------------------------
       NWT REQUIRED            4 OUTER ITERATIONS 
       AND A TOTAL OF          7 INNER ITERATIONS.
    ------------------------------------------------

 NO OUTPUT CONTROL FOR STRESS PERIOD    8   TIME STEP   16
 
 SOLVING FOR HEAD 
                                                   Max.-Head-Change                         Max.-Flux-Residual
  Residual-Control   Outer-Iter.   Inner-Iter.     Column Row Layer    Maximum-Head-Change  Column Row Layer    Maximum-Flux-Residual          L2-NORM 
          0                 1           2             4    7     1      -0.1468686096E+00       4    7    1        -0.7704170624E+01      0.1685994905E+02
          0                 2           2             4    7     1       0.1428594435E-01       4    7    1         0.7703924973E+00      0.1685968504E+01
          0                 3           2             4    7     1      -0.9728234324E-03       4    7    1        -0.5392773053E-01      0.1180180799E+00
          0                 4           1             4    7     1       0.3870953854E-04       4    7    1         0.2205646178E-02      0.4826943654E-02

    ------------------------------------------------
       NWT REQUIRED            4 OUTER ITERATIONS 
       AND A TOTAL OF          7 INNER ITERATIONS.
    ------------------------------------------------

 NO OUTPUT CONTROL FOR STRESS PERIOD    8   TIME STEP   17
 
 SOLVING FOR HEAD 
                                                   Max.-Head-Change                         Max.-Flux-Residual
  Residual-Control   Outer-Iter.   Inner-Iter.     Column Row Layer    Maximum-Head-Change  Column Row Layer    Maximum-Flux-Residual          L2-NORM 
          0                 1           2             4    7     1      -0.1454631903E+00       4    7    1        -0.7631087516E+01      0.1669336549E+02
          0                 2           2             4    7     1       0.1414923748E-01       4    7    1         0.7630843223E+00      0.1669310665E+01
          0                 3           2             4    7     1      -0.9635141807E-03       4    7    1        -0.5341615677E-01      0.1168520275E+00
          0                 4           1             4    7     1       0.3833911457E-04       4    7    1         0.2184722780E-02      0.4779252754E-02

    ------------------------------------------------
       NWT REQUIRED            4 OUTER ITERATIONS 
       AND A TOTAL OF          7 INNER ITERATIONS.
    ------------------------------------------------

 NO OUTPUT CONTROL FOR STRESS PERIOD    8   TIME STEP   18
 
 SOLVING FOR HEAD 
                                                   Max.-Head-Change                         Max.-Flux-Residual
  Residual-Control   Outer-Iter.   Inner-Iter.     Column Row Layer    Maximum-Head-Change  Column Row Layer    Maximum-Flux-Residual          L2-NORM 
          0                 1           2             4    7     1      -0.1440605006E+00       4    7    1        -0.7558065788E+01      0.1653191211E+02
          0                 2           2             4    7     1       0.1401279658E-01       4    7    1         0.7557823157E+00      0.1653165843E+01
          0                 3           2             4    7     1      -0.9542230357E-03       4    7    1        -0.5290501451E-01      0.1157218865E+00
          0                 4           1             4    7     1       0.3796941141E-04       4    7    1         0.2163817045E-02      0.4733029416E-02

    ------------------------------------------------
       NWT REQUIRED            4 OUTER ITERATIONS 
       AND A TOTAL OF          7 INNER ITERATIONS.
    ------------------------------------------------

 NO OUTPUT CONTROL FOR STRESS PERIOD    8   TIME STEP   19
 
 SOLVING FOR HEAD 
                                                   Max.-Head-Change                         Max.-Flux-Residual
  Residual-Control   Outer-Iter.   Inner-Iter.     Column Row Layer    Maximum-Head-Change  Column Row Layer    Maximum-Flux-Residual          L2-NORM 
          0                 1           2             4    7     1      -0.1426618274E+00       4    7    1        -0.7485178376E+01      0.1637532037E+02
          0                 2           2             4    7     1       0.1387674677E-01       4    7    1         0.7484937681E+00      0.1637507179E+01
          0                 3           2             4    7     1      -0.9449585189E-03       4    7    1        -0.5239481412E-01      0.1146257761E+00
          0                 4           1             4    7     1       0.3760076776E-04       4    7    1         0.2142949824E-02      0.4688200429E-02

    ------------------------------------------------
       NWT REQUIRED            4 OUTER ITERATIONS 
       AND A TOTAL OF          7 INNER ITERATIONS.
    ------------------------------------------------

 NO OUTPUT CONTROL FOR STRESS PERIOD    8   TIME STEP   20
 
 SOLVING FOR HEAD 
                                                   Max.-Head-Change                         Max.-Flux-Residual
  Residual-Control   Outer-Iter.   Inner-Iter.     Column Row Layer    Maximum-Head-Change  Column Row Layer    Maximum-Flux-Residual          L2-NORM 
          0                 1           2             4    7     1      -0.1412684773E+00       4    7    1        -0.7412499338E+01      0.1622334617E+02
          0                 2           2             4    7     1       0.1374121510E-01       4    7    1         0.7412260823E+00      0.1622310266E+01
          0                 3           2             4    7     1      -0.9357292829E-03       4    7    1        -0.5188607384E-01      0.1135619910E+00
          0                 4           1             4    7     1       0.3723352810E-04       4    7    1         0.2122142339E-02      0.4644688826E-02

    ------------------------------------------------
       NWT REQUIRED            4 OUTER ITERATIONS 
       AND A TOTAL OF          7 INNER ITERATIONS.
    ------------------------------------------------

 NO OUTPUT CONTROL FOR STRESS PERIOD    8   TIME STEP   21
 
 SOLVING FOR HEAD 
                                                   Max.-Head-Change                         Max.-Flux-Residual
  Residual-Control   Outer-Iter.   Inner-Iter.     Column Row Layer    Maximum-Head-Change  Column Row Layer    Maximum-Flux-Residual          L2-NORM 
          0                 1           2             4    7     1      -0.1398816424E+00       4    7    1        -0.7340096419E+01      0.1607577100E+02
          0                 2           2             4    7     1       0.1360631751E-01       4    7    1         0.7339860299E+00      0.1607553248E+01
          0                 3           2             4    7     1      -0.9265432215E-03       4    7    1        -0.5137926768E-01      0.1125289932E+00
          0                 4           1             4    7     1       0.3686800626E-04       4    7    1         0.2101413945E-02      0.4602440173E-02

    ------------------------------------------------
       NWT REQUIRED            4 OUTER ITERATIONS 
       AND A TOTAL OF          7 INNER ITERATIONS.
    ------------------------------------------------

 NO OUTPUT CONTROL FOR STRESS PERIOD    8   TIME STEP   22
 
 SOLVING FOR HEAD 
                                                   Max.-Head-Change                         Max.-Flux-Residual
  Residual-Control   Outer-Iter.   Inner-Iter.     Column Row Layer    Maximum-Head-Change  Column Row Layer    Maximum-Flux-Residual          L2-NORM 
          0                 1           2             4    7     1      -0.1385024061E+00       4    7    1        -0.7268031437E+01      0.1593238206E+02
          0                 2           2             4    7     1       0.1347215932E-01       4    7    1         0.7267797900E+00      0.1593214844E+01
          0                 3           2             4    7     1      -0.9174075078E-03       4    7    1        -0.5087482824E-01      0.1115253003E+00
          0                 4           1             4    7     1       0.3650448775E-04       4    7    1         0.2080782348E-02      0.4561389816E-02

    ------------------------------------------------
       NWT REQUIRED            4 OUTER ITERATIONS 
       AND A TOTAL OF          7 INNER ITERATIONS.
    ------------------------------------------------

 NO OUTPUT CONTROL FOR STRESS PERIOD    8   TIME STEP   23
 
 SOLVING FOR HEAD 
                                                   Max.-Head-Change                         Max.-Flux-Residual
  Residual-Control   Outer-Iter.   Inner-Iter.     Column Row Layer    Maximum-Head-Change  Column Row Layer    Maximum-Flux-Residual          L2-NORM 
          0                 1           2             4    7     1      -0.1371318898E+00       4    7    1        -0.7196367870E+01      0.1579298817E+02
          0                 2           2             4    7     1       0.1333884959E-01       4    7    1         0.7196137081E+00      0.1579275942E+01
          0                 3           2             4    7     1      -0.9083295689E-03       4    7    1        -0.5037319968E-01      0.1105495753E+00
          0                 4           1             4    7     1       0.3614326823E-04       4    7    1         0.2060265714E-02      0.4521482713E-02

    ------------------------------------------------
       NWT REQUIRED            4 OUTER ITERATIONS 
       AND A TOTAL OF          7 INNER ITERATIONS.
    ------------------------------------------------

 NO OUTPUT CONTROL FOR STRESS PERIOD    8   TIME STEP   24
 
 SOLVING FOR HEAD 
                                                   Max.-Head-Change                         Max.-Flux-Residual
  Residual-Control   Outer-Iter.   Inner-Iter.     Column Row Layer    Maximum-Head-Change  Column Row Layer    Maximum-Flux-Residual          L2-NORM 
          0                 1           2             4    7     1      -0.1357709804E+00       4    7    1        -0.7125156553E+01      0.1565740498E+02
          0                 2           2             4    7     1       0.1320647455E-01       4    7    1         0.7124928654E+00      0.1565718103E+01
          0                 3           2             4    7     1      -0.8993152771E-03       4    7    1        -0.4987473772E-01      0.1096005191E+00
          0                 4           1             4    7     1       0.3578458163E-04       4    7    1         0.2039878630E-02      0.4482665083E-02

    ------------------------------------------------
       NWT REQUIRED            4 OUTER ITERATIONS 
       AND A TOTAL OF          7 INNER ITERATIONS.
    ------------------------------------------------

 NO OUTPUT CONTROL FOR STRESS PERIOD    8   TIME STEP   25
 
 SOLVING FOR HEAD 
                                                   Max.-Head-Change                         Max.-Flux-Residual
  Residual-Control   Outer-Iter.   Inner-Iter.     Column Row Layer    Maximum-Head-Change  Column Row Layer    Maximum-Flux-Residual          L2-NORM 
          0                 1           2             4    7     1      -0.1344203369E+00       4    7    1        -0.7054436148E+01      0.1552545432E+02
          0                 2           2             4    7     1       0.1307509829E-01       4    7    1         0.7054211262E+00      0.1552523505E+01
          0                 3           2             4    7     1      -0.8903689970E-03       4    7    1        -0.4937971293E-01      0.1086768964E+00
          0                 4           1             4    7     1       0.3542860099E-04       4    7    1         0.2019632092E-02      0.4444890121E-02

    ------------------------------------------------
       NWT REQUIRED            4 OUTER ITERATIONS 
       AND A TOTAL OF          7 INNER ITERATIONS.
    ------------------------------------------------

 NO OUTPUT CONTROL FOR STRESS PERIOD    8   TIME STEP   26
 
 SOLVING FOR HEAD 
                                                   Max.-Head-Change                         Max.-Flux-Residual
  Residual-Control   Outer-Iter.   Inner-Iter.     Column Row Layer    Maximum-Head-Change  Column Row Layer    Maximum-Flux-Residual          L2-NORM 
          0                 1           2             4    7     1      -0.1330808199E+00       4    7    1        -0.6984255465E+01      0.1539699420E+02
          0                 2           2             4    7     1       0.1294480447E-01       4    7    1         0.6984033696E+00      0.1539677956E+01
          0                 3           2             4    7     1      -0.8814964253E-03       4    7    1        -0.4888846681E-01      0.1077777039E+00
          0                 4           1             4    7     1       0.3507555264E-04       4    7    1         0.1999540091E-02      0.4408113103E-02

    ------------------------------------------------
       NWT REQUIRED            4 OUTER ITERATIONS 
       AND A TOTAL OF          7 INNER ITERATIONS.
    ------------------------------------------------

 NO OUTPUT CONTROL FOR STRESS PERIOD    8   TIME STEP   27
 
 SOLVING FOR HEAD 
                                                   Max.-Head-Change                         Max.-Flux-Residual
  Residual-Control   Outer-Iter.   Inner-Iter.     Column Row Layer    Maximum-Head-Change  Column Row Layer    Maximum-Flux-Residual          L2-NORM 
          0                 1           2             4    7     1      -0.1317530683E+00       4    7    1        -0.6914651794E+01      0.1527185912E+02
          0                 2           2             4    7     1       0.1281565524E-01       4    7    1         0.6914433228E+00      0.1527164901E+01
          0                 3           2             4    7     1      -0.8727017945E-03       4    7    1        -0.4840126030E-01      0.1069017852E+00
          0                 4           1             4    7     1       0.3472560653E-04       4    7    1         0.1979613337E-02      0.4372294044E-02

    ------------------------------------------------
       NWT REQUIRED            4 OUTER ITERATIONS 
       AND A TOTAL OF          7 INNER ITERATIONS.
    ------------------------------------------------

 NO OUTPUT CONTROL FOR STRESS PERIOD    8   TIME STEP   28
 
 SOLVING FOR HEAD 
                                                   Max.-Head-Change                         Max.-Flux-Residual
  Residual-Control   Outer-Iter.   Inner-Iter.     Column Row Layer    Maximum-Head-Change  Column Row Layer    Maximum-Flux-Residual          L2-NORM 
          0                 1           2             4    7     1      -0.1304377880E+00       4    7    1        -0.6845665579E+01      0.1514992809E+02
          0                 2           2             4    7     1       0.1268771923E-01       4    7    1         0.6845450288E+00      0.1514972241E+01
          0                 3           2             4    7     1      -0.8639897790E-03       4    7    1        -0.4791837641E-01      0.1060482939E+00
          0                 4           1             4    7     1       0.3437894823E-04       4    7    1         0.1959863393E-02      0.4337380605E-02

    ------------------------------------------------
       NWT REQUIRED            4 OUTER ITERATIONS 
       AND A TOTAL OF          7 INNER ITERATIONS.
    ------------------------------------------------

 NO OUTPUT CONTROL FOR STRESS PERIOD    8   TIME STEP   29
 
 SOLVING FOR HEAD 
                                                   Max.-Head-Change                         Max.-Flux-Residual
  Residual-Control   Outer-Iter.   Inner-Iter.     Column Row Layer    Maximum-Head-Change  Column Row Layer    Maximum-Flux-Residual          L2-NORM 
          0                 1           2             4    7     1      -0.1291352086E+00       4    7    1        -0.6777311499E+01      0.1503105276E+02
          0                 2           2             4    7     1       0.1256101875E-01       4    7    1         0.6777099542E+00      0.1503085144E+01
          0                 3           2             4    7     1      -0.8553618972E-03       4    7    1        -0.4743991783E-01      0.1052161937E+00
          0                 4           1             4    7     1       0.3403563623E-04       4    7    1         0.1940294404E-02      0.4303347719E-02

    ------------------------------------------------
       NWT REQUIRED            4 OUTER ITERATIONS 
       AND A TOTAL OF          7 INNER ITERATIONS.
    ------------------------------------------------

 NO OUTPUT CONTROL FOR STRESS PERIOD    8   TIME STEP   30



 STREAM LISTING     PERIOD      8   STEP       30

 LAYER ROW COL. STREAM  RCH.  FLOW INTO     FLOW TO   FLOW OUT OF   OVRLND.     DIRECT     STREAM       STREAM     STREAM     STREAM   STREAMBED  STREAMBED
                SEG.NO.  NO.  STRM. RCH.    AQUIFER    STRM. RCH.    RUNOFF     PRECIP       ET          HEAD       DEPTH      WIDTH   CONDCTNC.   GRADIENT

   1    1    1     1     1    5.6250E+01  3.5874E-01   5.5891E+01  0.000E+00  0.000E+00  0.000E+00  1.09453E+03  1.479E+00  1.780E+01  8.010E-02  1.493E+00
   1    2    2     1     2    5.5891E+01  5.5550E-01   5.5335E+01  0.000E+00  0.000E+00  0.000E+00  1.08953E+03  1.473E+00  1.774E+01  1.242E-01  1.491E+00
   1    3    3     1     3    5.5335E+01  4.7368E-01   5.4862E+01  0.000E+00  0.000E+00  0.000E+00  1.08389E+03  1.467E+00  1.767E+01  1.060E-01  1.489E+00
   1    3    4     1     4    5.4862E+01  4.3613E-01   5.4426E+01  0.000E+00  0.000E+00  0.000E+00  1.07887E+03  1.461E+00  1.762E+01  9.777E-02  1.487E+00
   1    4    5     2     1    5.2426E+01  3.8056E-01   5.2045E+01  0.000E+00  0.000E+00  0.000E+00  1.07381E+03  1.879E+00  1.200E+01  7.800E-02  1.626E+00
   1    5    6     2     2    5.2045E+01  2.9230E-01   5.1753E+01  0.000E+00  0.000E+00  0.000E+00  1.06838E+03  1.872E+00  1.200E+01  6.000E-02  1.624E+00
   1    6    6     2     3    5.1753E+01  2.9192E-01   5.1461E+01  0.000E+00  0.000E+00  0.000E+00  1.06366E+03  1.865E+00  1.200E+01  6.000E-02  1.622E+00
   1    7    6     2     4    5.1461E+01  2.9154E-01   5.1169E+01  0.000E+00  0.000E+00  0.000E+00  1.05893E+03  1.859E+00  1.200E+01  6.000E-02  1.620E+00
   1    8    6     2     5    5.1169E+01  2.9116E-01   5.0878E+01  0.000E+00  0.000E+00  0.000E+00  1.05421E+03  1.853E+00  1.200E+01  6.000E-02  1.618E+00
   1    3    5     3     1    2.0000E+00  2.8252E-01   1.7175E+00  0.000E+00  0.000E+00  0.000E+00  1.07555E+03  1.909E+00  9.636E+00  7.227E-02  1.955E+00
   1    3    6     3     2    1.7175E+00  2.4905E-01   1.4684E+00  0.000E+00  0.000E+00  0.000E+00  1.07264E+03  1.727E+00  8.909E+00  6.682E-02  1.864E+00
   1    3    7     3     3    1.4684E+00  1.9718E-01   1.2712E+00  0.000E+00  0.000E+00  0.000E+00  1.06987E+03  1.555E+00  8.218E+00  5.547E-02  1.777E+00
   1    4    8     3     4    1.2712E+00  2.2567E-01   1.0456E+00  0.000E+00  0.000E+00  0.000E+00  1.06682E+03  1.364E+00  7.455E+00  6.709E-02  1.682E+00
   1    5    8     3     5    1.0456E+00  1.5790E-01   8.8768E-01  0.000E+00  0.000E+00  0.000E+00  1.06362E+03  1.164E+00  6.655E+00  4.991E-02  1.582E+00
   1    6    8     3     6    8.8768E-01  5.5980E-02   8.3170E-01  0.000E+00  0.000E+00  0.000E+00  1.06158E+03  1.036E+00  6.145E+00  1.844E-02  1.518E+00
   1    5   10     4     1    1.0000E+01  9.0919E-02   9.9091E+00  0.000E+00  0.000E+00  0.000E+00  1.07836E+03  6.368E-01  1.000E+01  2.500E-02  1.212E+00
   1    5    9     4     2    9.9091E+00  1.8158E-01   9.7275E+00  0.000E+00  0.000E+00  0.000E+00  1.07154E+03  6.315E-01  1.000E+01  5.000E-02  1.211E+00
   1    6    8     4     3    9.7275E+00  1.2689E-01   9.6006E+00  0.000E+00  0.000E+00  0.000E+00  1.06381E+03  6.256E-01  1.000E+01  3.500E-02  1.209E+00
   1    6    8     5     1    1.0432E+01  2.2686E-01   1.0205E+01  0.000E+00  0.000E+00  0.000E+00  1.05868E+03  6.790E-01  1.542E+01  6.166E-02  1.226E+00
   1    7    7     5     2    1.0205E+01  2.7894E-01   9.9265E+00  0.000E+00  0.000E+00  0.000E+00  1.05417E+03  6.732E-01  1.519E+01  7.594E-02  1.224E+00
   1    8    7     5     3    9.9265E+00  1.9221E-01   9.7343E+00  0.000E+00  0.000E+00  0.000E+00  1.04992E+03  6.676E-01  1.497E+01  5.241E-02  1.223E+00
   1    8    6     5     4    9.7343E+00  1.3577E-01   9.5985E+00  0.000E+00  0.000E+00  0.000E+00  1.04691E+03  6.637E-01  1.482E+01  3.706E-02  1.221E+00
   1    9    6     6     1    6.0477E+01  3.0428E-01   6.0172E+01  0.000E+00  0.000E+00  0.000E+00  1.04480E+03  2.071E+00  1.200E+01  6.000E-02  1.690E+00
   1   10    7     6     2    6.0172E+01  3.0391E-01   5.9868E+01  0.000E+00  0.000E+00  0.000E+00  1.04025E+03  2.065E+00  1.200E+01  6.000E-02  1.688E+00
   1   11    7     6     3    5.9868E+01  3.0353E-01   5.9565E+01  0.000E+00  0.000E+00  0.000E+00  1.03570E+03  2.059E+00  1.200E+01  6.000E-02  1.686E+00
   1   12    7     6     4    5.9565E+01  3.0315E-01   5.9262E+01  0.000E+00  0.000E+00  0.000E+00  1.03114E+03  2.053E+00  1.200E+01  6.000E-02  1.684E+00
   1   13    7     6     5    5.9262E+01  1.8489E-02   5.9243E+01  0.000E+00  0.000E+00  0.000E+00  1.02796E+03  2.049E+00  1.200E+01  2.400E-02  2.568E-01
   1   14    9     7     1    1.5000E+02  1.3357E+00   1.4866E+02  0.000E+00  0.000E+00  0.000E+00  1.03987E+03  2.288E+00  5.529E+01  5.593E-01  7.961E-01
   1   13    8     7     2    1.4866E+02  1.8134E+00   1.4685E+02  0.000E+00  0.000E+00  0.000E+00  1.03478E+03  2.279E+00  5.526E+01  6.148E-01  9.833E-01
   1   13    7     7     3    1.4685E+02  1.3974E+00   1.4545E+02  0.000E+00  0.000E+00  0.000E+00  1.02969E+03  2.271E+00  5.522E+01  5.585E-01  8.341E-01
   1   13    6     8     1    2.0470E+02  9.7914E-01   2.0372E+02  0.000E+00  0.000E+00  0.000E+00  1.02504E+03  3.162E+00  4.585E+01  4.673E-01  6.985E-01
   1   13    5     8     2    2.0372E+02  1.8259E-01   2.0353E+02  0.000E+00  0.000E+00  0.000E+00  1.01878E+03  3.159E+00  4.580E+01  4.668E-01  1.304E-01
   1   13    4     8     3    2.0353E+02 -2.2372E+00   2.0577E+02  0.000E+00  0.000E+00  0.000E+00  1.01254E+03  3.165E+00  4.589E+01  4.676E+00 -1.595E-01
   1   13    3     8     4    2.0577E+02 -3.3593E+00   2.0913E+02  0.000E+00  0.000E+00  0.000E+00  1.00631E+03  3.181E+00  4.613E+01  4.700E+00 -2.382E-01
   1   13    2     8     5    2.0913E+02 -2.5388E+00   2.1167E+02  0.000E+00  0.000E+00  0.000E+00  1.00007E+03  3.198E+00  4.637E+01  4.725E+00 -1.791E-01
   1   13    1     8     6    2.1167E+02 -1.9828E+00   2.1365E+02  0.000E+00  0.000E+00  0.000E+00  9.95086E+02  3.211E+00  4.656E+01  2.847E+00 -2.322E-01
   1    8    6     9     1    0.0000E+00  0.0000E+00   0.0000E+00  0.000E+00  0.000E+00  0.000E+00  1.07875E+03  0.000E+00  4.000E+00  0.000E+00  1.000E+00
   1    8    5     9     2    0.0000E+00  0.0000E+00   0.0000E+00  0.000E+00  0.000E+00  0.000E+00  1.07825E+03  0.000E+00  4.000E+00  0.000E+00  1.000E+00





UNSATURATED ZONE PACKAGE VOLUMETRIC BUDGET FOR  TIME STEP    30 STRESS PERIOD    8
  ------------------------------------------------------------------------------



     CUMULATIVE VOLUMES      L**3       RATES FOR THIS TIME STEP      L**3/T
     ------------------                 ------------------------

           IN:                                      IN:
           ---                                      ---
        INFILTRATION =   261923138.9910          INFILTRATION =          60.8175

          OUT:                                     OUT:
          ----                                     ----
              UZF ET =   261765555.6272                UZF ET =          60.8175
        UZF RECHARGE =       73224.0000          UZF RECHARGE =       0.0000E+00

            IN - OUT =       84359.3638              IN - OUT =       0.0000E+00

          STORAGE:                                 STORAGE:
          --------                                 --------
      STORAGE CHANGE =       84359.1881        STORAGE CHANGE =       2.0749E-17

 PERCENT DISCREPANCY IS DIFFERENCE BETWEEN IN-OUT MINUS CHANGE IN STORAGE
 DIVIDED BY THE AVERAGE OF IN AND OUT TIMES 100

 PERCENT DISCREPANCY =           0.00     PERCENT DISCREPANCY =           0.00






1
  VOLUMETRIC BUDGET FOR AGRICULTURAL FIELDS AT  END OF TIME STEP   30, STRESS PERIOD   8
  ------------------------------------------------------------------------------

     CUMULATIVE VOLUMES      L**3       RATES FOR THIS TIME STEP      L**3/T
     ------------------                 ------------------------

           IN:                                      IN:
           ---                                      ---
               AG WELLS  =   246247616.0000                 AG WELLS  =          59.9700
      DIVERSION SEGMENTS =           0.0000        DIVERSION SEGMENTS =           0.0000
       IRRIGATION PONDS  =           0.0000         IRRIGATION PONDS  =           0.0000
           GW IRRIGATION =           0.0000             GW IRRIGATION =           0.0000
           SW IRRIGATION =           0.0000             SW IRRIGATION =           0.0000
        SYSTEM LOSSES GW =           0.0000          SYSTEM LOSSES GW =           0.0000
        SYSTEM LOSSES SW =           0.0000          SYSTEM LOSSES SW =           0.0000

                TOTAL IN =   246247616.0000                  TOTAL IN =          59.9700

          OUT:                                     OUT:
          ----                                     ----
               AG WELLS  =           0.0000                 AG WELLS  =           0.0000
      DIVERSION SEGMENTS =           0.0000        DIVERSION SEGMENTS =           0.0000
       IRRIGATION PONDS  =           0.0000         IRRIGATION PONDS  =           0.0000
           GW IRRIGATION =   246247616.0000             GW IRRIGATION =          59.9700
           SW IRRIGATION =           0.0000             SW IRRIGATION =           0.0000
        SYSTEM LOSSES GW =           0.0000          SYSTEM LOSSES GW =           0.0000
        SYSTEM LOSSES SW =           0.0000          SYSTEM LOSSES SW =           0.0000

               TOTAL OUT =   246247616.0000                 TOTAL OUT =          59.9700

                IN - OUT =           0.0000                  IN - OUT =           0.0000

     PERCENT DISCREPANCY =           0.00         PERCENT DISCREPANCY =           0.00



1
  VOLUMETRIC BUDGET FOR ENTIRE MODEL AT END OF TIME STEP   30, STRESS PERIOD   8
  ------------------------------------------------------------------------------

     CUMULATIVE VOLUMES      L**3       RATES FOR THIS TIME STEP      L**3/T
     ------------------                 ------------------------

           IN:                                      IN:
           ---                                      ---
             STORAGE     =   250310432.0000               STORAGE     =          59.1060
       CONSTANT HEAD     =           0.0000         CONSTANT HEAD     =           0.0000
     HEAD DEP BOUNDS     =     5284886.0000       HEAD DEP BOUNDS     =           0.2858
      STREAM LEAKAGE     =   228892320.0000        STREAM LEAKAGE     =          12.7147
        UZF RECHARGE     =       73223.9531          UZF RECHARGE     =           0.0000
               GW ET     =           0.0000                 GW ET     =           0.0000
     SURFACE LEAKAGE     =           0.0000       SURFACE LEAKAGE     =           0.0000
           AG WELLS      =           0.0000             AG WELLS      =           0.0000

                TOTAL IN =   484560832.0000                  TOTAL IN =          72.1064

          OUT:                                     OUT:
          ----                                     ----
             STORAGE     =    36664480.0000               STORAGE     =           0.9425
       CONSTANT HEAD     =           0.0000         CONSTANT HEAD     =           0.0000
     HEAD DEP BOUNDS     =     5420214.5000       HEAD DEP BOUNDS     =           0.2957
      STREAM LEAKAGE     =   190800704.0000        STREAM LEAKAGE     =          10.1180
        UZF RECHARGE     =           0.0000          UZF RECHARGE     =           0.0000
               GW ET     =     5429774.0000                 GW ET     =           0.7804
     SURFACE LEAKAGE     =           0.0000       SURFACE LEAKAGE     =           0.0000
           AG WELLS      =   246247616.0000             AG WELLS      =          59.9700

               TOTAL OUT =   484562816.0000                 TOTAL OUT =          72.1066

                IN - OUT =       -1984.0000                  IN - OUT =      -2.0599E-04

     PERCENT DISCREPANCY =          -0.00         PERCENT DISCREPANCY =          -0.00






         TIME SUMMARY AT END OF TIME STEP   30 IN STRESS PERIOD    8
                    SECONDS     MINUTES      HOURS       DAYS        YEARS
                    -----------------------------------------------------------
   TIME STEP LENGTH  87667.      1461.1      24.352      1.0147     2.77799E-03
 STRESS PERIOD TIME 2.63000E+06  43833.      730.56      30.440     8.33397E-02
         TOTAL TIME 1.84964E+07 3.08274E+05  5137.9      214.08     0.58612    
1
1
                            STRESS PERIOD NO.    9, LENGTH =   2630000.    
                            -----------------------------------------------

                              NUMBER OF TIME STEPS =    30

                               MULTIPLIER FOR DELT =     1.000

                            INITIAL TIME STEP SIZE =   87666.66    

 REUSING NON-PARAMETER GHB CELLS FROM LAST STRESS PERIOD

      2 GHB CELLS

 REUSING STREAM SEGMENT DATA FROM LAST STRESS PERIOD



            AREAL INFILTRATION RATE
 READING ON UNIT   19 WITH FORMAT: (FREE)              

            1           2           3           4           5           6           7           8           9          10
 ........................................................................................................................
   1   1.0000E-10  2.0000E-10   0.000       0.000       0.000       0.000       0.000       0.000       0.000       0.000    
   2   2.0000E-10  1.0000E-10  2.0000E-10   0.000       0.000      8.0000E-10  8.0000E-10  5.0000E-10   0.000       0.000    
   3    0.000      5.0000E-10  1.0000E-10  1.0000E-10  8.0000E-10  8.0000E-10  5.0000E-10  5.0000E-10   0.000       0.000    
   4   8.0000E-10  5.0000E-10  1.0000E-10  1.0000E-10  1.0000E-10  1.0000E-10  1.0000E-10  1.0000E-10  2.0000E-10   0.000    
   5   8.0000E-10  5.0000E-10  1.0000E-10  1.0000E-10  1.0000E-10  1.0000E-10  1.0000E-10  1.0000E-10  1.0000E-10  1.0000E-10
   6   8.0000E-10  5.0000E-10  5.0000E-10  2.0000E-10  2.0000E-10  1.0000E-10  1.0000E-10  1.0000E-10  1.0000E-10  5.0000E-10
   7   8.0000E-10  5.0000E-10  5.0000E-10  2.0000E-10  2.0000E-10  1.0000E-10  1.0000E-10  2.0000E-10  2.0000E-10   0.000    
   8    0.000      5.0000E-10  5.0000E-10  2.0000E-10  2.0000E-10  1.0000E-10  1.0000E-10  2.0000E-10  5.0000E-10   0.000    
   9    0.000      5.0000E-10  5.0000E-10  2.0000E-10  2.0000E-10  1.0000E-10  1.0000E-10  2.0000E-10  5.0000E-10   0.000    
  10    0.000      5.0000E-10  5.0000E-10  2.0000E-10  2.0000E-10  1.0000E-10  1.0000E-10  2.0000E-10  5.0000E-10  8.0000E-10
  11    0.000      1.0000E-10  1.0000E-10  1.0000E-10  1.0000E-10  1.0000E-10  1.0000E-10  2.0000E-10  5.0000E-10   0.000    
  12   1.0000E-10  1.0000E-10  1.0000E-10  1.0000E-10  1.0000E-10  1.0000E-10  1.0000E-10  1.0000E-10  2.0000E-10   0.000    
  13   1.0000E-10  1.0000E-10  2.0000E-10  2.0000E-10  2.0000E-10  2.0000E-10  2.0000E-10  1.0000E-10  1.0000E-10   0.000    
  14    0.000      2.0000E-10  5.0000E-10  5.0000E-10  5.0000E-10  5.0000E-10  5.0000E-10  2.0000E-10  1.0000E-10   0.000    
  15    0.000       0.000      8.0000E-10  8.0000E-10  8.0000E-10  8.0000E-10   0.000       0.000       0.000       0.000    

                  ET RATE =  3.250000E-07

 USING ET EXTINCTION DEPTH FROM PREVIOUS STRESS PERIOD. CURRENT PERIOD IS:       9

 USING EXTINCTION WATER CONTENT FROM PREVIOUS STRESS PERIOD. CURRENT PERIOD IS:       9

 USING AIR ENTRY PRESSURE FROM PREVIOUS STRESS PERIOD. CURRENT PERIOD IS:       9

 USING ROOT PRESSURE HEAD FROM PREVIOUS STRESS PERIOD. CURRENT PERIOD IS:       9

 USING ROOT ACTIVITY FROM PREVIOUS STRESS PERIOD. CURRENT PERIOD IS:       9

 PROCESSING AG STRESS PERIOD DATA

 READING AG STRESS PERIOD DATA

 READING IRRIGATION SEGMENT

 READING IRRIGATION WELL

 READING SUPPLEMENTAL WELL

 NO IRRPOND OR REUSING IRRPOND DATA FROM LAST STRESS PERIOD

 END PROCESSING AG STRESS PERIOD DATA OPTIONS
 
 SOLVING FOR HEAD 
                                                   Max.-Head-Change                         Max.-Flux-Residual
  Residual-Control   Outer-Iter.   Inner-Iter.     Column Row Layer    Maximum-Head-Change  Column Row Layer    Maximum-Flux-Residual          L2-NORM 
          0                 1           2             4    7     1      -0.9193160625E-01       4    7    1        -0.4834637981E+01      0.1093037573E+02
          0                 2           2             4    7     1       0.8942245112E-02       4    7    1         0.4834507390E+00      0.1093006955E+01
          0                 3           2             4    7     1      -0.6089356314E-03       4    7    1        -0.3384168990E-01      0.7650864602E-01
          0                 4           1             4    7     1       0.2423011029E-04       4    7    1         0.1384126473E-02      0.3129077879E-02

    ------------------------------------------------
       NWT REQUIRED            4 OUTER ITERATIONS 
       AND A TOTAL OF          7 INNER ITERATIONS.
    ------------------------------------------------

 NO OUTPUT CONTROL FOR STRESS PERIOD    9   TIME STEP    1
 
 SOLVING FOR HEAD 
                                                   Max.-Head-Change                         Max.-Flux-Residual
  Residual-Control   Outer-Iter.   Inner-Iter.     Column Row Layer    Maximum-Head-Change  Column Row Layer    Maximum-Flux-Residual          L2-NORM 
          0                 1           2             4    7     1      -0.9084415819E-01       4    7    1        -0.4776595578E+01      0.1086547134E+02
          0                 2           2             4    7     1       0.8836472132E-02       4    7    1         0.4776469116E+00      0.1086520723E+01
          0                 3           2             4    7     1      -0.6017328240E-03       4    7    1        -0.3343541790E-01      0.7605477670E-01
          0                 4           1             4    7     1       0.2394350427E-04       4    7    1         0.1367509937E-02      0.3110527483E-02

    ------------------------------------------------
       NWT REQUIRED            4 OUTER ITERATIONS 
       AND A TOTAL OF          7 INNER ITERATIONS.
    ------------------------------------------------

 NO OUTPUT CONTROL FOR STRESS PERIOD    9   TIME STEP    2
 
 SOLVING FOR HEAD 
                                                   Max.-Head-Change                         Max.-Flux-Residual
  Residual-Control   Outer-Iter.   Inner-Iter.     Column Row Layer    Maximum-Head-Change  Column Row Layer    Maximum-Flux-Residual          L2-NORM 
          0                 1           2             4    7     1      -0.8978534458E-01       4    7    1        -0.4720093059E+01      0.1080151674E+02
          0                 2           2             4    7     1       0.8733484251E-02       4    7    1         0.4719970555E+00      0.1080130219E+01
          0                 3           2             4    7     1      -0.5947196746E-03       4    7    1        -0.3303992406E-01      0.7560807371E-01
          0                 4           1             4    7     1       0.2366444464E-04       4    7    1         0.1351334239E-02      0.3092293897E-02

    ------------------------------------------------
       NWT REQUIRED            4 OUTER ITERATIONS 
       AND A TOTAL OF          7 INNER ITERATIONS.
    ------------------------------------------------

 NO OUTPUT CONTROL FOR STRESS PERIOD    9   TIME STEP    3
 
 SOLVING FOR HEAD 
                                                   Max.-Head-Change                         Max.-Flux-Residual
  Residual-Control   Outer-Iter.   Inner-Iter.     Column Row Layer    Maximum-Head-Change  Column Row Layer    Maximum-Flux-Residual          L2-NORM 
          0                 1           2             4    7     1      -0.8875412368E-01       4    7    1        -0.4665075299E+01      0.1073921021E+02
          0                 2           2             4    7     1       0.8633180146E-02       4    7    1         0.4664956588E+00      0.1073902816E+01
          0                 3           2             4    7     1      -0.5878892823E-03       4    7    1        -0.3265482253E-01      0.7517243477E-01
          0                 4           1             4    7     1       0.2339265704E-04       4    7    1         0.1335583582E-02      0.3074488035E-02

    ------------------------------------------------
       NWT REQUIRED            4 OUTER ITERATIONS 
       AND A TOTAL OF          7 INNER ITERATIONS.
    ------------------------------------------------

 NO OUTPUT CONTROL FOR STRESS PERIOD    9   TIME STEP    4
 
 SOLVING FOR HEAD 
                                                   Max.-Head-Change                         Max.-Flux-Residual
  Residual-Control   Outer-Iter.   Inner-Iter.     Column Row Layer    Maximum-Head-Change  Column Row Layer    Maximum-Flux-Residual          L2-NORM 
          0                 1           2             4    7     1      -0.8774962244E-01       4    7    1        -0.4611495578E+01      0.1067837198E+02
          0                 2           2             4    7     1       0.8535474904E-02       4    7    1         0.4611380502E+00      0.1067821273E+01
          0                 3           2             4    7     1      -0.5812358656E-03       4    7    1        -0.3227978633E-01      0.7474688956E-01
          0                 4           1             4    7     1       0.2312791203E-04       4    7    1         0.1320244607E-02      0.3057116818E-02

    ------------------------------------------------
       NWT REQUIRED            4 OUTER ITERATIONS 
       AND A TOTAL OF          7 INNER ITERATIONS.
    ------------------------------------------------

 NO OUTPUT CONTROL FOR STRESS PERIOD    9   TIME STEP    5
 
 SOLVING FOR HEAD 
                                                   Max.-Head-Change                         Max.-Flux-Residual
  Residual-Control   Outer-Iter.   Inner-Iter.     Column Row Layer    Maximum-Head-Change  Column Row Layer    Maximum-Flux-Residual          L2-NORM 
          0                 1           2             4    7     1      -0.8677085520E-01       4    7    1        -0.4559301329E+01      0.1061887966E+02
          0                 2           2             4    7     1       0.8440272658E-02       4    7    1         0.4559189738E+00      0.1061873777E+01
          0                 3           2             4    7     1      -0.5747528959E-03       4    7    1        -0.3191444756E-01      0.7433075234E-01
          0                 4           1             4    7     1       0.2286994838E-04       4    7    1         0.1305302233E-02      0.3040104511E-02

    ------------------------------------------------
       NWT REQUIRED            4 OUTER ITERATIONS 
       AND A TOTAL OF          7 INNER ITERATIONS.
    ------------------------------------------------

 NO OUTPUT CONTROL FOR STRESS PERIOD    9   TIME STEP    6
 
 SOLVING FOR HEAD 
                                                   Max.-Head-Change                         Max.-Flux-Residual
  Residual-Control   Outer-Iter.   Inner-Iter.     Column Row Layer    Maximum-Head-Change  Column Row Layer    Maximum-Flux-Residual          L2-NORM 
          0                 1           2             4    7     1      -0.8581700306E-01       4    7    1        -0.4508448737E+01      0.1056064883E+02
          0                 2           2             4    7     1       0.8347493758E-02       4    7    1         0.4508340486E+00      0.1056051540E+01
          0                 3           2             4    7     1      -0.5684349480E-03       4    7    1        -0.3155849943E-01      0.7392326848E-01
          0                 4           1             4    7     1       0.2261855160E-04       4    7    1         0.1290743941E-02      0.3023440600E-02

    ------------------------------------------------
       NWT REQUIRED            4 OUTER ITERATIONS 
       AND A TOTAL OF          7 INNER ITERATIONS.
    ------------------------------------------------

 NO OUTPUT CONTROL FOR STRESS PERIOD    9   TIME STEP    7
 
 SOLVING FOR HEAD 
                                                   Max.-Head-Change                         Max.-Flux-Residual
  Residual-Control   Outer-Iter.   Inner-Iter.     Column Row Layer    Maximum-Head-Change  Column Row Layer    Maximum-Flux-Residual          L2-NORM 
          0                 1           2             4    7     1      -0.8488700228E-01       4    7    1        -0.4458880753E+01      0.1050360033E+02
          0                 2           2             4    7     1       0.8257034746E-02       4    7    1         0.4458775704E+00      0.1050348141E+01
          0                 3           2             4    7     1      -0.5622749790E-03       4    7    1        -0.3121154282E-01      0.7352414282E-01
          0                 4           1             4    7     1       0.2237344045E-04       4    7    1         0.1276553401E-02      0.3007140408E-02

    ------------------------------------------------
       NWT REQUIRED            4 OUTER ITERATIONS 
       AND A TOTAL OF          7 INNER ITERATIONS.
    ------------------------------------------------

 NO OUTPUT CONTROL FOR STRESS PERIOD    9   TIME STEP    8
 
 SOLVING FOR HEAD 
                                                   Max.-Head-Change                         Max.-Flux-Residual
  Residual-Control   Outer-Iter.   Inner-Iter.     Column Row Layer    Maximum-Head-Change  Column Row Layer    Maximum-Flux-Residual          L2-NORM 
          0                 1           2             4    7     1      -0.8398009975E-01       4    7    1        -0.4410556806E+01      0.1044768247E+02
          0                 2           2             4    7     1       0.8168822370E-02       4    7    1         0.4410454829E+00      0.1044757166E+01
          0                 3           2             4    7     1      -0.5562679988E-03       4    7    1        -0.3087329361E-01      0.7313280924E-01
          0                 4           1             4    7     1       0.2213441760E-04       4    7    1         0.1262719008E-02      0.2991117249E-02

    ------------------------------------------------
       NWT REQUIRED            4 OUTER ITERATIONS 
       AND A TOTAL OF          7 INNER ITERATIONS.
    ------------------------------------------------

 NO OUTPUT CONTROL FOR STRESS PERIOD    9   TIME STEP    9
 
 SOLVING FOR HEAD 
                                                   Max.-Head-Change                         Max.-Flux-Residual
  Residual-Control   Outer-Iter.   Inner-Iter.     Column Row Layer    Maximum-Head-Change  Column Row Layer    Maximum-Flux-Residual          L2-NORM 
          0                 1           2             4    7     1      -0.8309556280E-01       4    7    1        -0.4363437845E+01      0.1039284741E+02
          0                 2           2             4    7     1       0.8082785372E-02       4    7    1         0.4363338812E+00      0.1039274326E+01
          0                 3           2             4    7     1      -0.5504091563E-03       4    7    1        -0.3054347858E-01      0.7274905787E-01
          0                 4           1             4    7     1       0.2190128915E-04       4    7    1         0.1249229582E-02      0.2975420594E-02

    ------------------------------------------------
       NWT REQUIRED            4 OUTER ITERATIONS 
       AND A TOTAL OF          7 INNER ITERATIONS.
    ------------------------------------------------

 NO OUTPUT CONTROL FOR STRESS PERIOD    9   TIME STEP   10
 
 SOLVING FOR HEAD 
                                                   Max.-Head-Change                         Max.-Flux-Residual
  Residual-Control   Outer-Iter.   Inner-Iter.     Column Row Layer    Maximum-Head-Change  Column Row Layer    Maximum-Flux-Residual          L2-NORM 
          0                 1           2             4    7     1      -0.8223255864E-01       4    7    1        -0.4317478585E+01      0.1033905198E+02
          0                 2           2             4    7     1       0.7998842739E-02       4    7    1         0.4317382378E+00      0.1033884716E+01
          0                 3           2             4    7     1      -0.5446929336E-03       4    7    1        -0.3022178073E-01      0.7237181950E-01
          0                 4           1             4    7     1       0.2167383558E-04       4    7    1         0.1236072127E-02      0.2959991180E-02

    ------------------------------------------------
       NWT REQUIRED            4 OUTER ITERATIONS 
       AND A TOTAL OF          7 INNER ITERATIONS.
    ------------------------------------------------

 NO OUTPUT CONTROL FOR STRESS PERIOD    9   TIME STEP   11
 
 SOLVING FOR HEAD 
                                                   Max.-Head-Change                         Max.-Flux-Residual
  Residual-Control   Outer-Iter.   Inner-Iter.     Column Row Layer    Maximum-Head-Change  Column Row Layer    Maximum-Flux-Residual          L2-NORM 
          0                 1           2             4    7     1      -0.8139027540E-01       4    7    1        -0.4272635846E+01      0.1028626426E+02
          0                 2           2             4    7     1       0.7916915543E-02       4    7    1         0.4272542350E+00      0.1028617053E+01
          0                 3           2             4    7     1      -0.5391139563E-03       4    7    1        -0.2990789782E-01      0.7200312722E-01
          0                 4           1             4    7     1       0.2145184321E-04       4    7    1         0.1223234325E-02      0.2945010804E-02

    ------------------------------------------------
       NWT REQUIRED            4 OUTER ITERATIONS 
       AND A TOTAL OF          7 INNER ITERATIONS.
    ------------------------------------------------

 NO OUTPUT CONTROL FOR STRESS PERIOD    9   TIME STEP   12
 
 SOLVING FOR HEAD 
                                                   Max.-Head-Change                         Max.-Flux-Residual
  Residual-Control   Outer-Iter.   Inner-Iter.     Column Row Layer    Maximum-Head-Change  Column Row Layer    Maximum-Flux-Residual          L2-NORM 
          0                 1           2             4    7     1      -0.8056794505E-01       4    7    1        -0.4228867529E+01      0.1023444984E+02
          0                 2           2             4    7     1       0.7836929049E-02       4    7    1         0.4228776637E+00      0.1023436008E+01
          0                 3           2             4    7     1      -0.5336671350E-03       4    7    1        -0.2960153525E-01      0.7164046480E-01
          0                 4           1             4    7     1       0.2123510871E-04       4    7    1         0.1210704068E-02      0.2930086871E-02

    ------------------------------------------------
       NWT REQUIRED            4 OUTER ITERATIONS 
       AND A TOTAL OF          7 INNER ITERATIONS.
    ------------------------------------------------

 NO OUTPUT CONTROL FOR STRESS PERIOD    9   TIME STEP   13
 
 SOLVING FOR HEAD 
                                                   Max.-Head-Change                         Max.-Flux-Residual
  Residual-Control   Outer-Iter.   Inner-Iter.     Column Row Layer    Maximum-Head-Change  Column Row Layer    Maximum-Flux-Residual          L2-NORM 
          0                 1           2             4    7     1      -0.7976495674E-01       4    7    1        -0.4186141101E+01      0.1018357184E+02
          0                 2           2             4    7     1       0.7758823856E-02       4    7    1         0.4186052707E+00      0.1018348590E+01
          0                 3           2             4    7     1      -0.5283484251E-03       4    7    1        -0.2930246524E-01      0.7128437223E-01
          0                 4           1             4    7     1       0.2102347263E-04       4    7    1         0.1198472107E-02      0.2915529330E-02

    ------------------------------------------------
       NWT REQUIRED            4 OUTER ITERATIONS 
       AND A TOTAL OF          7 INNER ITERATIONS.
    ------------------------------------------------

 NO OUTPUT CONTROL FOR STRESS PERIOD    9   TIME STEP   14
 
 SOLVING FOR HEAD 
                                                   Max.-Head-Change                         Max.-Flux-Residual
  Residual-Control   Outer-Iter.   Inner-Iter.     Column Row Layer    Maximum-Head-Change  Column Row Layer    Maximum-Flux-Residual          L2-NORM 
          0                 1           2             4    7     1      -0.7898058987E-01       4    7    1        -0.4144417596E+01      0.1013359202E+02
          0                 2           2             4    7     1       0.7682529877E-02       4    7    1         0.4144331603E+00      0.1013350917E+01
          0                 3           2             4    7     1      -0.5231530534E-03       4    7    1        -0.2901041512E-01      0.7093453978E-01
          0                 4           1             4    7     1       0.2081674410E-04       4    7    1         0.1186527245E-02      0.2901212618E-02

    ------------------------------------------------
       NWT REQUIRED            4 OUTER ITERATIONS 
       AND A TOTAL OF          7 INNER ITERATIONS.
    ------------------------------------------------

 NO OUTPUT CONTROL FOR STRESS PERIOD    9   TIME STEP   15
 
 SOLVING FOR HEAD 
                                                   Max.-Head-Change                         Max.-Flux-Residual
  Residual-Control   Outer-Iter.   Inner-Iter.     Column Row Layer    Maximum-Head-Change  Column Row Layer    Maximum-Flux-Residual          L2-NORM 
          0                 1           2             4    7     1      -0.7821415350E-01       4    7    1        -0.4103659654E+01      0.1008449372E+02
          0                 2           2             4    7     1       0.7607979908E-02       4    7    1         0.4103575967E+00      0.1008441372E+01
          0                 3           2             4    7     1      -0.5180764438E-03       4    7    1        -0.2872512335E-01      0.7059089397E-01
          0                 4           1             4    7     1       0.2061474144E-04       4    7    1         0.1174858818E-02      0.2887167521E-02

    ------------------------------------------------
       NWT REQUIRED            4 OUTER ITERATIONS 
       AND A TOTAL OF          7 INNER ITERATIONS.
    ------------------------------------------------

 NO OUTPUT CONTROL FOR STRESS PERIOD    9   TIME STEP   16
 
 SOLVING FOR HEAD 
                                                   Max.-Head-Change                         Max.-Flux-Residual
  Residual-Control   Outer-Iter.   Inner-Iter.     Column Row Layer    Maximum-Head-Change  Column Row Layer    Maximum-Flux-Residual          L2-NORM 
          0                 1           2             4    7     1      -0.7746512347E-01       4    7    1        -0.4063838729E+01      0.1003624087E+02
          0                 2           2             4    7     1       0.7535122971E-02       4    7    1         0.4063757257E+00      0.1003616348E+01
          0                 3           2             4    7     1      -0.5131151248E-03       4    7    1        -0.2844639017E-01      0.7025315387E-01
          0                 4           1             4    7     1       0.2041732616E-04       4    7    1         0.1163458632E-02      0.2873347188E-02

    ------------------------------------------------
       NWT REQUIRED            4 OUTER ITERATIONS 
       AND A TOTAL OF          7 INNER ITERATIONS.
    ------------------------------------------------

 NO OUTPUT CONTROL FOR STRESS PERIOD    9   TIME STEP   17
 
 SOLVING FOR HEAD 
                                                   Max.-Head-Change                         Max.-Flux-Residual
  Residual-Control   Outer-Iter.   Inner-Iter.     Column Row Layer    Maximum-Head-Change  Column Row Layer    Maximum-Flux-Residual          L2-NORM 
          0                 1           2             4    7     1      -0.7673285735E-01       4    7    1        -0.4024920358E+01      0.9988812601E+01
          0                 2           2             4    7     1       0.7463896579E-02       4    7    1         0.4024841017E+00      0.9988737652E+00
          0                 3           2             4    7     1      -0.5082648410E-03       4    7    1        -0.2817397436E-01      0.6992118044E-01
          0                 4           1             4    7     1       0.2022432913E-04       4    7    1         0.1152316815E-02      0.2859776305E-02

    ------------------------------------------------
       NWT REQUIRED            4 OUTER ITERATIONS 
       AND A TOTAL OF          7 INNER ITERATIONS.
    ------------------------------------------------

 NO OUTPUT CONTROL FOR STRESS PERIOD    9   TIME STEP   18
 
 SOLVING FOR HEAD 
                                                   Max.-Head-Change                         Max.-Flux-Residual
  Residual-Control   Outer-Iter.   Inner-Iter.     Column Row Layer    Maximum-Head-Change  Column Row Layer    Maximum-Flux-Residual          L2-NORM 
          0                 1           2             4    7     1      -0.7601674335E-01       4    7    1        -0.3986871231E+01      0.9942194149E+01
          0                 2           2             4    7     1       0.7394241229E-02       4    7    1         0.3986793939E+00      0.9942121232E+00
          0                 3           2             4    7     1      -0.5035215401E-03       4    7    1        -0.2790764275E-01      0.6959486541E-01
          0                 4           1             4    7     1       0.2003558837E-04       4    7    1         0.1141423834E-02      0.2846431687E-02

    ------------------------------------------------
       NWT REQUIRED            4 OUTER ITERATIONS 
       AND A TOTAL OF          7 INNER ITERATIONS.
    ------------------------------------------------

 NO OUTPUT CONTROL FOR STRESS PERIOD    9   TIME STEP   19
 
 SOLVING FOR HEAD 
                                                   Max.-Head-Change                         Max.-Flux-Residual
  Residual-Control   Outer-Iter.   Inner-Iter.     Column Row Layer    Maximum-Head-Change  Column Row Layer    Maximum-Flux-Residual          L2-NORM 
          0                 1           2             4    7     1      -0.7531619369E-01       4    7    1        -0.3949659626E+01      0.9896344469E+01
          0                 2           2             4    7     1       0.7326099752E-02       4    7    1         0.3949584305E+00      0.9896273659E+00
          0                 3           2             4    7     1      -0.4988813297E-03       4    7    1        -0.2764717335E-01      0.6927394889E-01
          0                 4           1             4    7     1       0.1985095006E-04       4    7    1         0.1130770619E-02      0.2833305757E-02

    ------------------------------------------------
       NWT REQUIRED            4 OUTER ITERATIONS 
       AND A TOTAL OF          7 INNER ITERATIONS.
    ------------------------------------------------

 NO OUTPUT CONTROL FOR STRESS PERIOD    9   TIME STEP   20
 
 SOLVING FOR HEAD 
                                                   Max.-Head-Change                         Max.-Flux-Residual
  Residual-Control   Outer-Iter.   Inner-Iter.     Column Row Layer    Maximum-Head-Change  Column Row Layer    Maximum-Flux-Residual          L2-NORM 
          0                 1           2             4    7     1      -0.7463078321E-01       4    7    1        -0.3913262344E+01      0.9851263097E+01
          0                 2           2             4    7     1       0.7259369652E-02       4    7    1         0.3913188920E+00      0.9851196278E+00
          0                 3           2             4    7     1      -0.4943372304E-03       4    7    1        -0.2739240378E-01      0.6895841178E-01
          0                 4           1             4    7     1       0.1967013664E-04       4    7    1         0.1120350564E-02      0.2820399057E-02

    ------------------------------------------------
       NWT REQUIRED            4 OUTER ITERATIONS 
       AND A TOTAL OF          7 INNER ITERATIONS.
    ------------------------------------------------

 NO OUTPUT CONTROL FOR STRESS PERIOD    9   TIME STEP   21
 
 SOLVING FOR HEAD 
                                                   Max.-Head-Change                         Max.-Flux-Residual
  Residual-Control   Outer-Iter.   Inner-Iter.     Column Row Layer    Maximum-Head-Change  Column Row Layer    Maximum-Flux-Residual          L2-NORM 
          0                 1           2             4    7     1      -0.7396018476E-01       4    7    1        -0.3877653318E+01      0.9806920189E+01
          0                 2           2             4    7     1       0.7194202598E-02       4    7    1         0.3877581729E+00      0.9806853365E+00
          0                 3           2             4    7     1      -0.4898995689E-03       4    7    1        -0.2714315158E-01      0.6864801897E-01
          0                 4           1             4    7     1       0.1949355772E-04       4    7    1         0.1110156135E-02      0.2807706021E-02

    ------------------------------------------------
       NWT REQUIRED            4 OUTER ITERATIONS 
       AND A TOTAL OF          7 INNER ITERATIONS.
    ------------------------------------------------

 NO OUTPUT CONTROL FOR STRESS PERIOD    9   TIME STEP   22
 
 SOLVING FOR HEAD 
                                                   Max.-Head-Change                         Max.-Flux-Residual
  Residual-Control   Outer-Iter.   Inner-Iter.     Column Row Layer    Maximum-Head-Change  Column Row Layer    Maximum-Flux-Residual          L2-NORM 
          0                 1           2             4    7     1      -0.7330354235E-01       4    7    1        -0.3842798530E+01      0.9763272216E+01
          0                 2           2             4    7     1       0.7130331845E-02       4    7    1         0.3842728706E+00      0.9763553212E+00
          0                 3           2             4    7     1      -0.4855501816E-03       4    7    1        -0.2689917862E-01      0.6834492271E-01
          0                 4           1             4    7     1       0.1932049193E-04       4    7    1         0.1100177632E-02      0.2795309076E-02

    ------------------------------------------------
       NWT REQUIRED            4 OUTER ITERATIONS 
       AND A TOTAL OF          7 INNER ITERATIONS.
    ------------------------------------------------

 NO OUTPUT CONTROL FOR STRESS PERIOD    9   TIME STEP   23
 
 SOLVING FOR HEAD 
                                                   Max.-Head-Change                         Max.-Flux-Residual
  Residual-Control   Outer-Iter.   Inner-Iter.     Column Row Layer    Maximum-Head-Change  Column Row Layer    Maximum-Flux-Residual          L2-NORM 
          0                 1           2             4    7     1      -0.7266068463E-01       4    7    1        -0.3808685202E+01      0.9720305831E+01
          0                 2           2             4    7     1       0.7067801767E-02       4    7    1         0.3808617076E+00      0.9720242781E+00
          0                 3           2             4    7     1      -0.4812920905E-03       4    7    1        -0.2666039551E-01      0.6804175192E-01
          0                 4           1             4    7     1       0.1915105818E-04       4    7    1         0.1090411381E-02      0.2782909685E-02

    ------------------------------------------------
       NWT REQUIRED            4 OUTER ITERATIONS 
       AND A TOTAL OF          7 INNER ITERATIONS.
    ------------------------------------------------

 NO OUTPUT CONTROL FOR STRESS PERIOD    9   TIME STEP   24
 
 SOLVING FOR HEAD 
                                                   Max.-Head-Change                         Max.-Flux-Residual
  Residual-Control   Outer-Iter.   Inner-Iter.     Column Row Layer    Maximum-Head-Change  Column Row Layer    Maximum-Flux-Residual          L2-NORM 
          0                 1           2             4    7     1      -0.7203098390E-01       4    7    1        -0.3775279370E+01      0.9678015760E+01
          0                 2           2             4    7     1       0.7006551467E-02       4    7    1         0.3775212881E+00      0.9677954082E+00
          0                 3           2             4    7     1      -0.4771211490E-03       4    7    1        -0.2642656450E-01      0.6774572478E-01
          0                 4           1             4    7     1       0.1898509276E-04       4    7    1         0.1080847705E-02      0.2770798380E-02

    ------------------------------------------------
       NWT REQUIRED            4 OUTER ITERATIONS 
       AND A TOTAL OF          7 INNER ITERATIONS.
    ------------------------------------------------

 NO OUTPUT CONTROL FOR STRESS PERIOD    9   TIME STEP   25
 
 SOLVING FOR HEAD 
                                                   Max.-Head-Change                         Max.-Flux-Residual
  Residual-Control   Outer-Iter.   Inner-Iter.     Column Row Layer    Maximum-Head-Change  Column Row Layer    Maximum-Flux-Residual          L2-NORM 
          0                 1           2             4    7     1      -0.7141410766E-01       4    7    1        -0.3742563027E+01      0.9636396800E+01
          0                 2           2             4    7     1       0.6946548553E-02       4    7    1         0.3742498115E+00      0.9636336384E+00
          0                 3           2             4    7     1      -0.4730351498E-03       4    7    1        -0.2619755953E-01      0.6745435167E-01
          0                 4           1             4    7     1       0.1882250726E-04       4    7    1         0.1071481380E-02      0.2758947150E-02

    ------------------------------------------------
       NWT REQUIRED            4 OUTER ITERATIONS 
       AND A TOTAL OF          7 INNER ITERATIONS.
    ------------------------------------------------

 NO OUTPUT CONTROL FOR STRESS PERIOD    9   TIME STEP   26
 
 SOLVING FOR HEAD 
                                                   Max.-Head-Change                         Max.-Flux-Residual
  Residual-Control   Outer-Iter.   Inner-Iter.     Column Row Layer    Maximum-Head-Change  Column Row Layer    Maximum-Flux-Residual          L2-NORM 
          0                 1           2             4    7     1      -0.7080960480E-01       4    7    1        -0.3710511659E+01      0.9595428528E+01
          0                 2           2             4    7     1       0.6874303078E-02       4    7    1         0.3701915377E+00      0.9594902300E+00
          0                 3           2             4    7     1      -0.4681154411E-03       4    7    1        -0.2591347621E-01      0.6716437509E-01
          0                 4           1             4    7     1       0.1862674786E-04       4    7    1         0.1059862385E-02      0.2747026737E-02

    ------------------------------------------------
       NWT REQUIRED            4 OUTER ITERATIONS 
       AND A TOTAL OF          7 INNER ITERATIONS.
    ------------------------------------------------

 NO OUTPUT CONTROL FOR STRESS PERIOD    9   TIME STEP   27
 
 SOLVING FOR HEAD 
                                                   Max.-Head-Change                         Max.-Flux-Residual
  Residual-Control   Outer-Iter.   Inner-Iter.     Column Row Layer    Maximum-Head-Change  Column Row Layer    Maximum-Flux-Residual          L2-NORM 
          0                 1           2             4    7     1      -0.7024634442E-01       4    7    1        -0.3679818586E+01      0.9555149294E+01
          0                 2           2             4    7     1       0.6832963958E-02       4    7    1         0.3679758461E+00      0.9555091425E+00
          0                 3           2             4    7     1      -0.4653003925E-03       4    7    1        -0.2575837723E-01      0.6688569624E-01
          0                 4           1             4    7     1       0.1851473458E-04       4    7    1         0.1053518838E-02      0.2735627838E-02

    ------------------------------------------------
       NWT REQUIRED            4 OUTER ITERATIONS 
       AND A TOTAL OF          7 INNER ITERATIONS.
    ------------------------------------------------

 NO OUTPUT CONTROL FOR STRESS PERIOD    9   TIME STEP   28
 
 SOLVING FOR HEAD 
                                                   Max.-Head-Change                         Max.-Flux-Residual
  Residual-Control   Outer-Iter.   Inner-Iter.     Column Row Layer    Maximum-Head-Change  Column Row Layer    Maximum-Flux-Residual          L2-NORM 
          0                 1           2             4    7     1      -0.6967958532E-01       4    7    1        -0.3649830385E+01      0.9515492963E+01
          0                 2           2             4    7     1       0.6777835635E-02       4    7    1         0.3649771532E+00      0.9515436220E+00
          0                 3           2             4    7     1      -0.4615463396E-03       4    7    1        -0.2554846744E-01      0.6660811211E-01
          0                 4           1             4    7     1       0.1836535709E-04       4    7    1         0.1044933513E-02      0.2724272724E-02

    ------------------------------------------------
       NWT REQUIRED            4 OUTER ITERATIONS 
       AND A TOTAL OF          7 INNER ITERATIONS.
    ------------------------------------------------

 NO OUTPUT CONTROL FOR STRESS PERIOD    9   TIME STEP   29
 
 SOLVING FOR HEAD 
                                                   Max.-Head-Change                         Max.-Flux-Residual
  Residual-Control   Outer-Iter.   Inner-Iter.     Column Row Layer    Maximum-Head-Change  Column Row Layer    Maximum-Flux-Residual          L2-NORM 
          0                 1           2             4    7     1      -0.6912297974E-01       4    7    1        -0.3620384935E+01      0.9476448961E+01
          0                 2           2             4    7     1       0.6723694917E-02       4    7    1         0.3620327316E+00      0.9476393248E+00
          0                 3           2             4    7     1      -0.4578595395E-03       4    7    1        -0.2534235668E-01      0.6633481098E-01
          0                 4           1             4    7     1       0.1821865598E-04       4    7    1         0.1036503574E-02      0.2713095859E-02

    ------------------------------------------------
       NWT REQUIRED            4 OUTER ITERATIONS 
       AND A TOTAL OF          7 INNER ITERATIONS.
    ------------------------------------------------

 NO OUTPUT CONTROL FOR STRESS PERIOD    9   TIME STEP   30



 STREAM LISTING     PERIOD      9   STEP       30

 LAYER ROW COL. STREAM  RCH.  FLOW INTO     FLOW TO   FLOW OUT OF   OVRLND.     DIRECT     STREAM       STREAM     STREAM     STREAM   STREAMBED  STREAMBED
                SEG.NO.  NO.  STRM. RCH.    AQUIFER    STRM. RCH.    RUNOFF     PRECIP       ET          HEAD       DEPTH      WIDTH   CONDCTNC.   GRADIENT

   1    1    1     1     1    4.5750E+01  3.2289E-01   4.5427E+01  0.000E+00  0.000E+00  0.000E+00  1.09442E+03  1.372E+00  1.641E+01  7.386E-02  1.457E+00
   1    2    2     1     2    4.5427E+01  5.0023E-01   4.4927E+01  0.000E+00  0.000E+00  0.000E+00  1.08943E+03  1.369E+00  1.636E+01  1.145E-01  1.456E+00
   1    3    3     1     3    4.4927E+01  4.2678E-01   4.4500E+01  0.000E+00  0.000E+00  0.000E+00  1.08378E+03  1.366E+00  1.629E+01  9.776E-02  1.455E+00
   1    3    4     1     4    4.4500E+01  3.9314E-01   4.4107E+01  0.000E+00  0.000E+00  0.000E+00  1.07877E+03  1.363E+00  1.624E+01  9.011E-02  1.454E+00
   1    4    5     2     1    4.2107E+01  3.6245E-01   4.1744E+01  0.000E+00  0.000E+00  0.000E+00  1.07358E+03  1.647E+00  1.200E+01  7.800E-02  1.549E+00
   1    5    6     2     2    4.1744E+01  2.7835E-01   4.1466E+01  0.000E+00  0.000E+00  0.000E+00  1.06815E+03  1.639E+00  1.200E+01  6.000E-02  1.546E+00
   1    6    6     2     3    4.1466E+01  2.7796E-01   4.1188E+01  0.000E+00  0.000E+00  0.000E+00  1.06343E+03  1.633E+00  1.200E+01  6.000E-02  1.544E+00
   1    7    6     2     4    4.1188E+01  2.7756E-01   4.0910E+01  0.000E+00  0.000E+00  0.000E+00  1.05870E+03  1.626E+00  1.200E+01  6.000E-02  1.542E+00
   1    8    6     2     5    4.0910E+01  2.7717E-01   4.0633E+01  0.000E+00  0.000E+00  0.000E+00  1.05398E+03  1.619E+00  1.200E+01  6.000E-02  1.540E+00
   1    3    5     3     1    2.0000E+00  2.8252E-01   1.7175E+00  0.000E+00  0.000E+00  0.000E+00  1.07555E+03  1.909E+00  9.636E+00  7.227E-02  1.955E+00
   1    3    6     3     2    1.7175E+00  2.4905E-01   1.4684E+00  0.000E+00  0.000E+00  0.000E+00  1.07264E+03  1.727E+00  8.909E+00  6.682E-02  1.864E+00
   1    3    7     3     3    1.4684E+00  1.9718E-01   1.2712E+00  0.000E+00  0.000E+00  0.000E+00  1.06987E+03  1.555E+00  8.218E+00  5.547E-02  1.777E+00
   1    4    8     3     4    1.2712E+00  2.2567E-01   1.0456E+00  0.000E+00  0.000E+00  0.000E+00  1.06682E+03  1.364E+00  7.455E+00  6.709E-02  1.682E+00
   1    5    8     3     5    1.0456E+00  1.5790E-01   8.8768E-01  0.000E+00  0.000E+00  0.000E+00  1.06362E+03  1.164E+00  6.655E+00  4.991E-02  1.582E+00
   1    6    8     3     6    8.8768E-01  5.5980E-02   8.3170E-01  0.000E+00  0.000E+00  0.000E+00  1.06158E+03  1.036E+00  6.145E+00  1.844E-02  1.518E+00
   1    5   10     4     1    1.0000E+01  9.0919E-02   9.9091E+00  0.000E+00  0.000E+00  0.000E+00  1.07836E+03  6.368E-01  1.000E+01  2.500E-02  1.212E+00
   1    5    9     4     2    9.9091E+00  1.8158E-01   9.7275E+00  0.000E+00  0.000E+00  0.000E+00  1.07154E+03  6.315E-01  1.000E+01  5.000E-02  1.211E+00
   1    6    8     4     3    9.7275E+00  1.2689E-01   9.6006E+00  0.000E+00  0.000E+00  0.000E+00  1.06381E+03  6.256E-01  1.000E+01  3.500E-02  1.209E+00
   1    6    8     5     1    1.0432E+01  2.2686E-01   1.0205E+01  0.000E+00  0.000E+00  0.000E+00  1.05868E+03  6.790E-01  1.542E+01  6.166E-02  1.226E+00
   1    7    7     5     2    1.0205E+01  2.7894E-01   9.9265E+00  0.000E+00  0.000E+00  0.000E+00  1.05417E+03  6.732E-01  1.519E+01  7.594E-02  1.224E+00
   1    8    7     5     3    9.9265E+00  1.9221E-01   9.7343E+00  0.000E+00  0.000E+00  0.000E+00  1.04992E+03  6.676E-01  1.497E+01  5.241E-02  1.223E+00
   1    8    6     5     4    9.7343E+00  1.3577E-01   9.5985E+00  0.000E+00  0.000E+00  0.000E+00  1.04691E+03  6.637E-01  1.482E+01  3.706E-02  1.221E+00
   1    9    6     6     1    5.0232E+01  2.9116E-01   4.9940E+01  0.000E+00  0.000E+00  0.000E+00  1.04458E+03  1.853E+00  1.200E+01  6.000E-02  1.618E+00
   1   10    7     6     2    4.9940E+01  2.9077E-01   4.9650E+01  0.000E+00  0.000E+00  0.000E+00  1.04003E+03  1.846E+00  1.200E+01  6.000E-02  1.615E+00
   1   11    7     6     3    4.9650E+01  2.9038E-01   4.9359E+01  0.000E+00  0.000E+00  0.000E+00  1.03548E+03  1.840E+00  1.200E+01  6.000E-02  1.613E+00
   1   12    7     6     4    4.9359E+01  2.9000E-01   4.9069E+01  0.000E+00  0.000E+00  0.000E+00  1.03092E+03  1.833E+00  1.200E+01  6.000E-02  1.611E+00
   1   13    7     6     5    4.9069E+01  1.3177E-02   4.9056E+01  0.000E+00  0.000E+00  0.000E+00  1.02774E+03  1.830E+00  1.200E+01  2.400E-02  1.830E-01
   1   14    9     7     1    1.5000E+02  1.3355E+00   1.4866E+02  0.000E+00  0.000E+00  0.000E+00  1.03987E+03  2.288E+00  5.529E+01  5.593E-01  7.959E-01
   1   13    8     7     2    1.4866E+02  1.8111E+00   1.4685E+02  0.000E+00  0.000E+00  0.000E+00  1.03478E+03  2.279E+00  5.526E+01  6.148E-01  9.820E-01
   1   13    7     7     3    1.4685E+02  1.3963E+00   1.4546E+02  0.000E+00  0.000E+00  0.000E+00  1.02969E+03  2.271E+00  5.522E+01  5.585E-01  8.334E-01
   1   13    6     8     1    1.9451E+02  9.3903E-01   1.9357E+02  0.000E+00  0.000E+00  0.000E+00  1.02498E+03  3.102E+00  4.498E+01  4.584E-01  6.828E-01
   1   13    5     8     2    1.9357E+02  1.5829E-01   1.9342E+02  0.000E+00  0.000E+00  0.000E+00  1.01872E+03  3.099E+00  4.494E+01  4.579E-01  1.152E-01
   1   13    4     8     3    1.9342E+02 -2.4286E+00   1.9584E+02  0.000E+00  0.000E+00  0.000E+00  1.01248E+03  3.106E+00  4.503E+01  4.589E+00 -1.764E-01
   1   13    3     8     4    1.9584E+02 -3.5321E+00   1.9938E+02  0.000E+00  0.000E+00  0.000E+00  1.00625E+03  3.124E+00  4.529E+01  4.615E+00 -2.551E-01
   1   13    2     8     5    1.9938E+02 -2.5705E+00   2.0195E+02  0.000E+00  0.000E+00  0.000E+00  1.00002E+03  3.142E+00  4.555E+01  4.642E+00 -1.846E-01
   1   13    1     8     6    2.0195E+02 -2.0001E+00   2.0395E+02  0.000E+00  0.000E+00  0.000E+00  9.95030E+02  3.155E+00  4.575E+01  2.797E+00 -2.384E-01
   1    8    6     9     1    0.0000E+00  0.0000E+00   0.0000E+00  0.000E+00  0.000E+00  0.000E+00  1.07875E+03  0.000E+00  4.000E+00  0.000E+00  1.000E+00
   1    8    5     9     2    0.0000E+00  0.0000E+00   0.0000E+00  0.000E+00  0.000E+00  0.000E+00  1.07825E+03  0.000E+00  4.000E+00  0.000E+00  1.000E+00





UNSATURATED ZONE PACKAGE VOLUMETRIC BUDGET FOR  TIME STEP    30 STRESS PERIOD    9
  ------------------------------------------------------------------------------



     CUMULATIVE VOLUMES      L**3       RATES FOR THIS TIME STEP      L**3/T
     ------------------                 ------------------------

           IN:                                      IN:
           ---                                      ---
        INFILTRATION =   392285656.3674          INFILTRATION =          49.5675

          OUT:                                     OUT:
          ----                                     ----
              UZF ET =   392128073.0036                UZF ET =          49.5675
        UZF RECHARGE =       73224.0000          UZF RECHARGE =       0.0000E+00

            IN - OUT =       84359.3638              IN - OUT =       0.0000E+00

          STORAGE:                                 STORAGE:
          --------                                 --------
      STORAGE CHANGE =       84359.1881        STORAGE CHANGE =       4.1498E-17

 PERCENT DISCREPANCY IS DIFFERENCE BETWEEN IN-OUT MINUS CHANGE IN STORAGE
 DIVIDED BY THE AVERAGE OF IN AND OUT TIMES 100

 PERCENT DISCREPANCY =           0.00     PERCENT DISCREPANCY =           0.00






1
  VOLUMETRIC BUDGET FOR AGRICULTURAL FIELDS AT  END OF TIME STEP   30, STRESS PERIOD   9
  ------------------------------------------------------------------------------

     CUMULATIVE VOLUMES      L**3       RATES FOR THIS TIME STEP      L**3/T
     ------------------                 ------------------------

           IN:                                      IN:
           ---                                      ---
               AG WELLS  =   374380864.0000                 AG WELLS  =          48.7200
      DIVERSION SEGMENTS =           0.0000        DIVERSION SEGMENTS =           0.0000
       IRRIGATION PONDS  =           0.0000         IRRIGATION PONDS  =           0.0000
           GW IRRIGATION =           0.0000             GW IRRIGATION =           0.0000
           SW IRRIGATION =           0.0000             SW IRRIGATION =           0.0000
        SYSTEM LOSSES GW =           0.0000          SYSTEM LOSSES GW =           0.0000
        SYSTEM LOSSES SW =           0.0000          SYSTEM LOSSES SW =           0.0000

                TOTAL IN =   374380864.0000                  TOTAL IN =          48.7200

          OUT:                                     OUT:
          ----                                     ----
               AG WELLS  =           0.0000                 AG WELLS  =           0.0000
      DIVERSION SEGMENTS =           0.0000        DIVERSION SEGMENTS =           0.0000
       IRRIGATION PONDS  =           0.0000         IRRIGATION PONDS  =           0.0000
           GW IRRIGATION =   374380864.0000             GW IRRIGATION =          48.7200
           SW IRRIGATION =           0.0000             SW IRRIGATION =           0.0000
        SYSTEM LOSSES GW =           0.0000          SYSTEM LOSSES GW =           0.0000
        SYSTEM LOSSES SW =           0.0000          SYSTEM LOSSES SW =           0.0000

               TOTAL OUT =   374380864.0000                 TOTAL OUT =          48.7200

                IN - OUT =           0.0000                  IN - OUT =           0.0000

     PERCENT DISCREPANCY =           0.00         PERCENT DISCREPANCY =           0.00



1
  VOLUMETRIC BUDGET FOR ENTIRE MODEL AT END OF TIME STEP   30, STRESS PERIOD   9
  ------------------------------------------------------------------------------

     CUMULATIVE VOLUMES      L**3       RATES FOR THIS TIME STEP      L**3/T
     ------------------                 ------------------------

           IN:                                      IN:
           ---                                      ---
             STORAGE     =   376951104.0000               STORAGE     =          47.9638
       CONSTANT HEAD     =           0.0000         CONSTANT HEAD     =           0.0000
     HEAD DEP BOUNDS     =     6036391.5000       HEAD DEP BOUNDS     =           0.2857
      STREAM LEAKAGE     =   261320992.0000        STREAM LEAKAGE     =          12.3337
        UZF RECHARGE     =       73223.9531          UZF RECHARGE     =           0.0000
               GW ET     =           0.0000                 GW ET     =           0.0000
     SURFACE LEAKAGE     =           0.0000       SURFACE LEAKAGE     =           0.0000
           AG WELLS      =           0.0000             AG WELLS      =           0.0000

                TOTAL IN =   644381696.0000                  TOTAL IN =          60.5832

          OUT:                                     OUT:
          ----                                     ----
             STORAGE     =    38505972.0000               STORAGE     =           0.6487
       CONSTANT HEAD     =           0.0000         CONSTANT HEAD     =           0.0000
     HEAD DEP BOUNDS     =     6195622.0000       HEAD DEP BOUNDS     =           0.2943
      STREAM LEAKAGE     =   218756544.0000        STREAM LEAKAGE     =          10.5314
        UZF RECHARGE     =           0.0000          UZF RECHARGE     =           0.0000
               GW ET     =     6544794.5000                 GW ET     =           0.3890
     SURFACE LEAKAGE     =           0.0000       SURFACE LEAKAGE     =           0.0000
           AG WELLS      =   374380864.0000             AG WELLS      =          48.7200

               TOTAL OUT =   644383808.0000                 TOTAL OUT =          60.5834

                IN - OUT =       -2112.0000                  IN - OUT =      -1.6785E-04

     PERCENT DISCREPANCY =          -0.00         PERCENT DISCREPANCY =          -0.00






         TIME SUMMARY AT END OF TIME STEP   30 IN STRESS PERIOD    9
                    SECONDS     MINUTES      HOURS       DAYS        YEARS
                    -----------------------------------------------------------
   TIME STEP LENGTH  87667.      1461.1      24.352      1.0147     2.77799E-03
 STRESS PERIOD TIME 2.63000E+06  43833.      730.56      30.440     8.33397E-02
         TOTAL TIME 2.11264E+07 3.52107E+05  5868.4      244.52     0.66945    
1
1
                            STRESS PERIOD NO.   10, LENGTH =   2630000.    
                            -----------------------------------------------

                              NUMBER OF TIME STEPS =    30

                               MULTIPLIER FOR DELT =     1.000

                            INITIAL TIME STEP SIZE =   87666.66    

 REUSING NON-PARAMETER GHB CELLS FROM LAST STRESS PERIOD

      2 GHB CELLS

 REUSING STREAM SEGMENT DATA FROM LAST STRESS PERIOD



            AREAL INFILTRATION RATE
 READING ON UNIT   19 WITH FORMAT: (FREE)              

            1           2           3           4           5           6           7           8           9          10
 ........................................................................................................................
   1   1.0000E-10  2.0000E-10   0.000       0.000       0.000       0.000       0.000       0.000       0.000       0.000    
   2   2.0000E-10  1.0000E-10  2.0000E-10   0.000       0.000      8.0000E-10  8.0000E-10  5.0000E-10   0.000       0.000    
   3    0.000      5.0000E-10  1.0000E-10  1.0000E-10  8.0000E-10  8.0000E-10  5.0000E-10  5.0000E-10   0.000       0.000    
   4   8.0000E-10  5.0000E-10  1.0000E-10  1.0000E-10  1.0000E-10  1.0000E-10  1.0000E-10  1.0000E-10  2.0000E-10   0.000    
   5   8.0000E-10  5.0000E-10  1.0000E-10  1.0000E-10  1.0000E-10  1.0000E-10  1.0000E-10  1.0000E-10  1.0000E-10  1.0000E-10
   6   8.0000E-10  5.0000E-10  5.0000E-10  2.0000E-10  2.0000E-10  1.0000E-10  1.0000E-10  1.0000E-10  1.0000E-10  5.0000E-10
   7   8.0000E-10  5.0000E-10  5.0000E-10  2.0000E-10  2.0000E-10  1.0000E-10  1.0000E-10  2.0000E-10  2.0000E-10   0.000    
   8    0.000      5.0000E-10  5.0000E-10  2.0000E-10  2.0000E-10  1.0000E-10  1.0000E-10  2.0000E-10  5.0000E-10   0.000    
   9    0.000      5.0000E-10  5.0000E-10  2.0000E-10  2.0000E-10  1.0000E-10  1.0000E-10  2.0000E-10  5.0000E-10   0.000    
  10    0.000      5.0000E-10  5.0000E-10  2.0000E-10  2.0000E-10  1.0000E-10  1.0000E-10  2.0000E-10  5.0000E-10  8.0000E-10
  11    0.000      1.0000E-10  1.0000E-10  1.0000E-10  1.0000E-10  1.0000E-10  1.0000E-10  2.0000E-10  5.0000E-10   0.000    
  12   1.0000E-10  1.0000E-10  1.0000E-10  1.0000E-10  1.0000E-10  1.0000E-10  1.0000E-10  1.0000E-10  2.0000E-10   0.000    
  13   1.0000E-10  1.0000E-10  2.0000E-10  2.0000E-10  2.0000E-10  2.0000E-10  2.0000E-10  1.0000E-10  1.0000E-10   0.000    
  14    0.000      2.0000E-10  5.0000E-10  5.0000E-10  5.0000E-10  5.0000E-10  5.0000E-10  2.0000E-10  1.0000E-10   0.000    
  15    0.000       0.000      8.0000E-10  8.0000E-10  8.0000E-10  8.0000E-10   0.000       0.000       0.000       0.000    

                  ET RATE =  7.500000E-08

 USING ET EXTINCTION DEPTH FROM PREVIOUS STRESS PERIOD. CURRENT PERIOD IS:      10

 USING EXTINCTION WATER CONTENT FROM PREVIOUS STRESS PERIOD. CURRENT PERIOD IS:      10

 USING AIR ENTRY PRESSURE FROM PREVIOUS STRESS PERIOD. CURRENT PERIOD IS:      10

 USING ROOT PRESSURE HEAD FROM PREVIOUS STRESS PERIOD. CURRENT PERIOD IS:      10

 USING ROOT ACTIVITY FROM PREVIOUS STRESS PERIOD. CURRENT PERIOD IS:      10

 PROCESSING AG STRESS PERIOD DATA

 READING AG STRESS PERIOD DATA

 READING IRRIGATION SEGMENT

 READING IRRIGATION WELL

 READING SUPPLEMENTAL WELL

 NO IRRPOND OR REUSING IRRPOND DATA FROM LAST STRESS PERIOD

 END PROCESSING AG STRESS PERIOD DATA OPTIONS
 
 SOLVING FOR HEAD 
                                                   Max.-Head-Change                         Max.-Flux-Residual
  Residual-Control   Outer-Iter.   Inner-Iter.     Column Row Layer    Maximum-Head-Change  Column Row Layer    Maximum-Flux-Residual          L2-NORM 
          0                 1           2             5    8     1       0.6722984681E-01       5    8    1         0.3667557248E+01      0.9975497903E+01
          0                 2           2             5    8     1      -0.6539508295E-02       5    8    1        -0.3667471809E+00      0.9975232704E+00
          0                 3           2             5    8     1       0.4453175118E-03       5    8    1         0.2567239684E-01      0.6982675250E-01
          0                 4           1             5    8     1      -0.1771959533E-04       5    8    1        -0.1050002107E-02      0.2855886500E-02

    ------------------------------------------------
       NWT REQUIRED            4 OUTER ITERATIONS 
       AND A TOTAL OF          7 INNER ITERATIONS.
    ------------------------------------------------

 NO OUTPUT CONTROL FOR STRESS PERIOD   10   TIME STEP    1
 
 SOLVING FOR HEAD 
                                                   Max.-Head-Change                         Max.-Flux-Residual
  Residual-Control   Outer-Iter.   Inner-Iter.     Column Row Layer    Maximum-Head-Change  Column Row Layer    Maximum-Flux-Residual          L2-NORM 
          0                 1           2             5    8     1       0.6408821818E-01       5    8    1         0.3493656088E+01      0.9667015562E+01
          0                 2           2             5    8     1      -0.6233921190E-02       5    8    1        -0.3493575990E+00      0.9666587247E+00
          0                 3           2             5    8     1       0.4245080876E-03       5    8    1         0.2445512053E-01      0.6766454199E-01
          0                 4           1             5    8     1      -0.1689156907E-04       5    8    1        -0.1000215457E-02      0.2767386016E-02

    ------------------------------------------------
       NWT REQUIRED            4 OUTER ITERATIONS 
       AND A TOTAL OF          7 INNER ITERATIONS.
    ------------------------------------------------

 NO OUTPUT CONTROL FOR STRESS PERIOD   10   TIME STEP    2
 
 SOLVING FOR HEAD 
                                                   Max.-Head-Change                         Max.-Flux-Residual
  Residual-Control   Outer-Iter.   Inner-Iter.     Column Row Layer    Maximum-Head-Change  Column Row Layer    Maximum-Flux-Residual          L2-NORM 
          0                 1           2             5    6     1       0.6123073072E-01       5    8    1         0.3330390358E+01      0.9360271397E+01
          0                 2           2             5    6     1      -0.5955969606E-02       5    8    1        -0.3330315803E+00      0.9359976380E+00
          0                 3           2             5    6     1       0.4055805763E-03       5    8    1         0.2331229349E-01      0.6551843308E-01
          0                 4           1             5    6     1      -0.1613839257E-04       5    8    1        -0.9534737876E-03      0.2679580696E-02

    ------------------------------------------------
       NWT REQUIRED            4 OUTER ITERATIONS 
       AND A TOTAL OF          7 INNER ITERATIONS.
    ------------------------------------------------

 NO OUTPUT CONTROL FOR STRESS PERIOD   10   TIME STEP    3
 
 SOLVING FOR HEAD 
                                                   Max.-Head-Change                         Max.-Flux-Residual
  Residual-Control   Outer-Iter.   Inner-Iter.     Column Row Layer    Maximum-Head-Change  Column Row Layer    Maximum-Flux-Residual          L2-NORM 
          0                 1           2             5    6     1       0.5858871545E-01       5    6    1         0.3182249191E+01      0.9070004759E+01
          0                 2           2             5    6     1      -0.5698981472E-02       5    6    1        -0.3182177485E+00      0.9069668316E+00
          0                 3           2             5    6     1       0.3880805593E-03       5    6    1         0.2227532211E-01      0.6348650753E-01
          0                 4           1             5    6     1      -0.1544205157E-04       5    6    1        -0.9110616249E-03      0.2596532681E-02

    ------------------------------------------------
       NWT REQUIRED            4 OUTER ITERATIONS 
       AND A TOTAL OF          7 INNER ITERATIONS.
    ------------------------------------------------

 NO OUTPUT CONTROL FOR STRESS PERIOD   10   TIME STEP    4
 
 SOLVING FOR HEAD 
                                                   Max.-Head-Change                         Max.-Flux-Residual
  Residual-Control   Outer-Iter.   Inner-Iter.     Column Row Layer    Maximum-Head-Change  Column Row Layer    Maximum-Flux-Residual          L2-NORM 
          0                 1           2             5    6     1       0.5609571092E-01       5    6    1         0.3044943378E+01      0.8794980290E+01
          0                 2           2             5    6     1      -0.5456487403E-02       5    6    1        -0.3044876713E+00      0.8794681091E+00
          0                 3           2             5    6     1       0.3715675410E-03       5    6    1         0.2131421153E-01      0.6156171839E-01
          0                 4           1             5    6     1      -0.1478498416E-04       5    6    1        -0.8717521666E-03      0.2517767755E-02

    ------------------------------------------------
       NWT REQUIRED            4 OUTER ITERATIONS 
       AND A TOTAL OF          7 INNER ITERATIONS.
    ------------------------------------------------

 NO OUTPUT CONTROL FOR STRESS PERIOD   10   TIME STEP    5
 
 SOLVING FOR HEAD 
                                                   Max.-Head-Change                         Max.-Flux-Residual
  Residual-Control   Outer-Iter.   Inner-Iter.     Column Row Layer    Maximum-Head-Change  Column Row Layer    Maximum-Flux-Residual          L2-NORM 
          0                 1           2             5    6     1       0.5374164349E-01       5    6    1         0.2915371794E+01      0.8534165650E+01
          0                 2           2             5    6     1      -0.5227507562E-02       5    6    1        -0.2915309781E+00      0.8533899271E+00
          0                 3           2             5    6     1       0.3559747972E-03       5    6    1         0.2040723823E-01      0.5973643410E-01
          0                 4           1             5    6     1      -0.1416453550E-04       5    6    1        -0.8346569275E-03      0.2443158750E-02

    ------------------------------------------------
       NWT REQUIRED            4 OUTER ITERATIONS 
       AND A TOTAL OF          7 INNER ITERATIONS.
    ------------------------------------------------

 NO OUTPUT CONTROL FOR STRESS PERIOD   10   TIME STEP    6
 
 SOLVING FOR HEAD 
                                                   Max.-Head-Change                         Max.-Flux-Residual
  Residual-Control   Outer-Iter.   Inner-Iter.     Column Row Layer    Maximum-Head-Change  Column Row Layer    Maximum-Flux-Residual          L2-NORM 
          0                 1           2             5    7     1       0.5241964424E-01       5    6    1         0.2793036718E+01      0.8286577215E+01
          0                 2           2             5    7     1      -0.5098959516E-02       5    6    1        -0.2792978999E+00      0.8286339183E+00
          0                 3           2             5    7     1       0.3472206980E-03       5    6    1         0.1955091831E-01      0.5800362271E-01
          0                 4           1             5    7     1      -0.1381623652E-04       5    6    1        -0.7996334155E-03      0.2372289157E-02

    ------------------------------------------------
       NWT REQUIRED            4 OUTER ITERATIONS 
       AND A TOTAL OF          7 INNER ITERATIONS.
    ------------------------------------------------

 NO OUTPUT CONTROL FOR STRESS PERIOD   10   TIME STEP    7
 
 SOLVING FOR HEAD 
                                                   Max.-Head-Change                         Max.-Flux-Residual
  Residual-Control   Outer-Iter.   Inner-Iter.     Column Row Layer    Maximum-Head-Change  Column Row Layer    Maximum-Flux-Residual          L2-NORM 
          0                 1           2             5    7     1       0.5117797573E-01       5    7    1         0.2724300973E+01      0.8051283199E+01
          0                 2           2             5    7     1      -0.4978184807E-02       5    7    1        -0.2724276129E+00      0.8051070500E+00
          0                 3           2             5    7     1       0.3389963316E-03       5    7    1         0.1906996690E-01      0.5635683547E-01
          0                 4           1             5    7     1      -0.1348898171E-04       5    7    1        -0.7799626151E-03      0.2304949865E-02

    ------------------------------------------------
       NWT REQUIRED            4 OUTER ITERATIONS 
       AND A TOTAL OF          7 INNER ITERATIONS.
    ------------------------------------------------

 NO OUTPUT CONTROL FOR STRESS PERIOD   10   TIME STEP    8
 
 SOLVING FOR HEAD 
                                                   Max.-Head-Change                         Max.-Flux-Residual
  Residual-Control   Outer-Iter.   Inner-Iter.     Column Row Layer    Maximum-Head-Change  Column Row Layer    Maximum-Flux-Residual          L2-NORM 
          0                 1           2             5    7     1       0.4996189075E-01       5    7    1         0.2659766509E+01      0.7827451542E+01
          0                 2           2             5    7     1      -0.4859897977E-02       5    7    1        -0.2659745089E+00      0.7827260951E+00
          0                 3           2             5    7     1       0.3309413876E-03       5    7    1         0.1861824619E-01      0.5479022111E-01
          0                 4           1             5    7     1      -0.1316846831E-04       5    7    1        -0.7614872291E-03      0.2240847873E-02

    ------------------------------------------------
       NWT REQUIRED            4 OUTER ITERATIONS 
       AND A TOTAL OF          7 INNER ITERATIONS.
    ------------------------------------------------

 NO OUTPUT CONTROL FOR STRESS PERIOD   10   TIME STEP    9
 
 SOLVING FOR HEAD 
                                                   Max.-Head-Change                         Max.-Flux-Residual
  Residual-Control   Outer-Iter.   Inner-Iter.     Column Row Layer    Maximum-Head-Change  Column Row Layer    Maximum-Flux-Residual          L2-NORM 
          0                 1           2             5    7     1       0.4877198746E-01       5    7    1         0.2596566691E+01      0.7614307905E+01
          0                 2           2             5    7     1      -0.4744157299E-02       5    7    1        -0.2596548279E+00      0.7614136706E+00
          0                 3           2             5    7     1       0.3230598327E-03       5    7    1         0.1817586548E-01      0.5329844381E-01
          0                 4           1             5    7     1      -0.1285485394E-04       5    7    1        -0.7433938383E-03      0.2179858508E-02

    ------------------------------------------------
       NWT REQUIRED            4 OUTER ITERATIONS 
       AND A TOTAL OF          7 INNER ITERATIONS.
    ------------------------------------------------

 NO OUTPUT CONTROL FOR STRESS PERIOD   10   TIME STEP   10
 
 SOLVING FOR HEAD 
                                                   Max.-Head-Change                         Max.-Flux-Residual
  Residual-Control   Outer-Iter.   Inner-Iter.     Column Row Layer    Maximum-Head-Change  Column Row Layer    Maximum-Flux-Residual          L2-NORM 
          0                 1           2             4    7     1       0.4831298352E-01       5    7    1         0.2534724367E+01      0.7411150117E+01
          0                 2           2             4    7     1      -0.4699529134E-02       5    7    1        -0.2534708598E+00      0.7410996953E+00
          0                 3           2             4    7     1       0.3200206209E-03       5    7    1         0.1774298501E-01      0.5187654506E-01
          0                 4           1             4    7     1      -0.1273391930E-04       5    7    1        -0.7256890115E-03      0.2121708251E-02

    ------------------------------------------------
       NWT REQUIRED            4 OUTER ITERATIONS 
       AND A TOTAL OF          7 INNER ITERATIONS.
    ------------------------------------------------

 NO OUTPUT CONTROL FOR STRESS PERIOD   10   TIME STEP   11
 
 SOLVING FOR HEAD 
                                                   Max.-Head-Change                         Max.-Flux-Residual
  Residual-Control   Outer-Iter.   Inner-Iter.     Column Row Layer    Maximum-Head-Change  Column Row Layer    Maximum-Flux-Residual          L2-NORM 
          0                 1           2             4    7     1       0.4784129226E-01       4    7    1         0.2510232249E+01      0.7217322802E+01
          0                 2           2             4    7     1      -0.4653650041E-02       4    7    1        -0.2510230468E+00      0.7217184750E+00
          0                 3           2             4    7     1       0.3168963896E-03       4    7    1         0.1757162481E-01      0.5051990253E-01
          0                 4           1             4    7     1      -0.1260960337E-04       4    7    1        -0.7186804341E-03      0.2066244401E-02

    ------------------------------------------------
       NWT REQUIRED            4 OUTER ITERATIONS 
       AND A TOTAL OF          7 INNER ITERATIONS.
    ------------------------------------------------

 NO OUTPUT CONTROL FOR STRESS PERIOD   10   TIME STEP   12
 
 SOLVING FOR HEAD 
                                                   Max.-Head-Change                         Max.-Flux-Residual
  Residual-Control   Outer-Iter.   Inner-Iter.     Column Row Layer    Maximum-Head-Change  Column Row Layer    Maximum-Flux-Residual          L2-NORM 
          0                 1           2             4    7     1       0.4734696609E-01       4    7    1         0.2485717546E+01      0.7032219042E+01
          0                 2           2             4    7     1      -0.4605568783E-02       4    7    1        -0.2485717869E+00      0.7032094740E+00
          0                 3           2             4    7     1       0.3136222030E-03       4    7    1         0.1740003456E-01      0.4922434627E-01
          0                 4           1             4    7     1      -0.1247932060E-04       4    7    1        -0.7116623922E-03      0.2013260653E-02

    ------------------------------------------------
       NWT REQUIRED            4 OUTER ITERATIONS 
       AND A TOTAL OF          7 INNER ITERATIONS.
    ------------------------------------------------

 NO OUTPUT CONTROL FOR STRESS PERIOD   10   TIME STEP   13
 
 SOLVING FOR HEAD 
                                                   Max.-Head-Change                         Max.-Flux-Residual
  Residual-Control   Outer-Iter.   Inner-Iter.     Column Row Layer    Maximum-Head-Change  Column Row Layer    Maximum-Flux-Residual          L2-NORM 
          0                 1           2             4    7     1       0.4683256399E-01       4    7    1         0.2460036518E+01      0.6855289975E+01
          0                 2           2             4    7     1      -0.4555534314E-02       4    7    1        -0.2460038701E+00      0.6855165773E+00
          0                 3           2             4    7     1       0.3102150135E-03       4    7    1         0.1722027854E-01      0.4798587087E-01
          0                 4           1             4    7     1      -0.1234374553E-04       4    7    1        -0.7043103731E-03      0.1962602031E-02

    ------------------------------------------------
       NWT REQUIRED            4 OUTER ITERATIONS 
       AND A TOTAL OF          7 INNER ITERATIONS.
    ------------------------------------------------

 NO OUTPUT CONTROL FOR STRESS PERIOD   10   TIME STEP   14
 
 SOLVING FOR HEAD 
                                                   Max.-Head-Change                         Max.-Flux-Residual
  Residual-Control   Outer-Iter.   Inner-Iter.     Column Row Layer    Maximum-Head-Change  Column Row Layer    Maximum-Flux-Residual          L2-NORM 
          0                 1           2             4    7     1       0.4630035737E-01       4    7    1         0.2433314570E+01      0.6686032233E+01
          0                 2           2             4    7     1      -0.4503767619E-02       4    7    1        -0.2433318392E+00      0.6685930274E+00
          0                 3           2             4    7     1       0.3066898690E-03       4    7    1         0.1703323474E-01      0.4680123842E-01
          0                 4           1             4    7     1      -0.1220347682E-04       4    7    1        -0.6966602809E-03      0.1914163934E-02

    ------------------------------------------------
       NWT REQUIRED            4 OUTER ITERATIONS 
       AND A TOTAL OF          7 INNER ITERATIONS.
    ------------------------------------------------

 NO OUTPUT CONTROL FOR STRESS PERIOD   10   TIME STEP   15
 
 SOLVING FOR HEAD 
                                                   Max.-Head-Change                         Max.-Flux-Residual
  Residual-Control   Outer-Iter.   Inner-Iter.     Column Row Layer    Maximum-Head-Change  Column Row Layer    Maximum-Flux-Residual          L2-NORM 
          0                 1           2             4    7     1       0.4575232548E-01       4    7    1         0.2405662195E+01      0.6523961446E+01
          0                 2           2             4    7     1      -0.4450461254E-02       4    7    1        -0.2405667457E+00      0.6523868835E+00
          0                 3           2             4    7     1       0.3030598816E-03       4    7    1         0.1683967675E-01      0.4566685080E-01
          0                 4           1             4    7     1      -0.1205903624E-04       4    7    1        -0.6887437453E-03      0.1867756147E-02

    ------------------------------------------------
       NWT REQUIRED            4 OUTER ITERATIONS 
       AND A TOTAL OF          7 INNER ITERATIONS.
    ------------------------------------------------

 NO OUTPUT CONTROL FOR STRESS PERIOD   10   TIME STEP   16
 
 SOLVING FOR HEAD 
                                                   Max.-Head-Change                         Max.-Flux-Residual
  Residual-Control   Outer-Iter.   Inner-Iter.     Column Row Layer    Maximum-Head-Change  Column Row Layer    Maximum-Flux-Residual          L2-NORM 
          0                 1           2             4    7     1       0.4519031833E-01       4    7    1         0.2377182011E+01      0.6368648471E+01
          0                 2           2             4    7     1      -0.4395795203E-02       4    7    1        -0.2377188530E+00      0.6368564494E+00
          0                 3           2             4    7     1       0.2993373073E-03       4    7    1         0.1664032297E-01      0.4457974407E-01
          0                 4           1             4    7     1      -0.1191091180E-04       4    7    1        -0.6805901724E-03      0.1823294303E-02

    ------------------------------------------------
       NWT REQUIRED            4 OUTER ITERATIONS 
       AND A TOTAL OF          7 INNER ITERATIONS.
    ------------------------------------------------

 NO OUTPUT CONTROL FOR STRESS PERIOD   10   TIME STEP   17
 
 SOLVING FOR HEAD 
                                                   Max.-Head-Change                         Max.-Flux-Residual
  Residual-Control   Outer-Iter.   Inner-Iter.     Column Row Layer    Maximum-Head-Change  Column Row Layer    Maximum-Flux-Residual          L2-NORM 
          0                 1           2             4    7     1       0.4461632707E-01       4    7    1         0.2347984494E+01      0.6219691539E+01
          0                 2           2             4    7     1      -0.4339963179E-02       4    7    1        -0.2347992108E+00      0.6219614859E+00
          0                 3           2             4    7     1       0.2955353375E-03       4    7    1         0.1643594691E-01      0.4353710892E-01
          0                 4           1             4    7     1      -0.1175962769E-04       4    7    1        -0.6722311857E-03      0.1780654491E-02

    ------------------------------------------------
       NWT REQUIRED            4 OUTER ITERATIONS 
       AND A TOTAL OF          7 INNER ITERATIONS.
    ------------------------------------------------

 NO OUTPUT CONTROL FOR STRESS PERIOD   10   TIME STEP   18
 
 SOLVING FOR HEAD 
                                                   Max.-Head-Change                         Max.-Flux-Residual
  Residual-Control   Outer-Iter.   Inner-Iter.     Column Row Layer    Maximum-Head-Change  Column Row Layer    Maximum-Flux-Residual          L2-NORM 
          0                 1           2             4    7     1       0.4403206767E-01       4    7    1         0.2318165604E+01      0.6076709613E+01
          0                 2           2             4    7     1      -0.4283132123E-02       4    7    1        -0.2318174165E+00      0.6076639827E+00
          0                 3           2             4    7     1       0.2916653391E-03       4    7    1         0.1622722033E-01      0.4253631661E-01
          0                 4           1             4    7     1      -0.1160563704E-04       4    7    1        -0.6636942624E-03      0.1739729124E-02

    ------------------------------------------------
       NWT REQUIRED            4 OUTER ITERATIONS 
       AND A TOTAL OF          7 INNER ITERATIONS.
    ------------------------------------------------

 NO OUTPUT CONTROL FOR STRESS PERIOD   10   TIME STEP   19
 
 SOLVING FOR HEAD 
                                                   Max.-Head-Change                         Max.-Flux-Residual
  Residual-Control   Outer-Iter.   Inner-Iter.     Column Row Layer    Maximum-Head-Change  Column Row Layer    Maximum-Flux-Residual          L2-NORM 
          0                 1           2             4    7     1       0.4343887712E-01       4    7    1         0.2287799754E+01      0.5939364680E+01
          0                 2           2             4    7     1      -0.4225432108E-02       4    7    1        -0.2287809127E+00      0.5939300961E+00
          0                 3           2             4    7     1       0.2877361696E-03       4    7    1         0.1601466419E-01      0.4157492949E-01
          0                 4           1             4    7     1      -0.1144929192E-04       4    7    1        -0.6550007145E-03      0.1700410200E-02

    ------------------------------------------------
       NWT REQUIRED            4 OUTER ITERATIONS 
       AND A TOTAL OF          7 INNER ITERATIONS.
    ------------------------------------------------

 NO OUTPUT CONTROL FOR STRESS PERIOD   10   TIME STEP   20
 
 SOLVING FOR HEAD 
                                                   Max.-Head-Change                         Max.-Flux-Residual
  Residual-Control   Outer-Iter.   Inner-Iter.     Column Row Layer    Maximum-Head-Change  Column Row Layer    Maximum-Flux-Residual          L2-NORM 
          0                 1           2             4    7     1       0.4283851954E-01       4    7    1         0.2256985380E+01      0.5807330555E+01
          0                 2           2             4    7     1      -0.4167034756E-02       4    7    1        -0.2256995447E+00      0.5807272243E+00
          0                 3           2             4    7     1       0.2837595162E-03       4    7    1         0.1579896769E-01      0.4065076152E-01
          0                 4           1             4    7     1      -0.1129105697E-04       4    7    1        -0.6461787186E-03      0.1662615461E-02

    ------------------------------------------------
       NWT REQUIRED            4 OUTER ITERATIONS 
       AND A TOTAL OF          7 INNER ITERATIONS.
    ------------------------------------------------

 NO OUTPUT CONTROL FOR STRESS PERIOD   10   TIME STEP   21
 
 SOLVING FOR HEAD 
                                                   Max.-Head-Change                         Max.-Flux-Residual
  Residual-Control   Outer-Iter.   Inner-Iter.     Column Row Layer    Maximum-Head-Change  Column Row Layer    Maximum-Flux-Residual          L2-NORM 
          0                 1           2             4    7     1       0.4223223645E-01       4    7    1         0.2225792113E+01      0.5680308080E+01
          0                 2           2             4    7     1      -0.4108060851E-02       4    7    1        -0.2225802766E+00      0.5680254695E+00
          0                 3           2             4    7     1       0.2797436028E-03       4    7    1         0.1558061826E-01      0.3976165762E-01
          0                 4           1             4    7     1      -0.1113126044E-04       4    7    1        -0.6372482173E-03      0.1626258596E-02

    ------------------------------------------------
       NWT REQUIRED            4 OUTER ITERATIONS 
       AND A TOTAL OF          7 INNER ITERATIONS.
    ------------------------------------------------

 NO OUTPUT CONTROL FOR STRESS PERIOD   10   TIME STEP   22
 
 SOLVING FOR HEAD 
                                                   Max.-Head-Change                         Max.-Flux-Residual
  Residual-Control   Outer-Iter.   Inner-Iter.     Column Row Layer    Maximum-Head-Change  Column Row Layer    Maximum-Flux-Residual          L2-NORM 
          0                 1           2             4    7     1       0.4162144761E-01       4    7    1         0.2194298884E+01      0.5558037871E+01
          0                 2           2             4    7     1      -0.4056266305E-02       4    7    1        -0.2199312446E+00      0.5558329397E+00
          0                 3           2             4    7     1       0.2762165606E-03       4    7    1         0.1539518422E-01      0.3890816793E-01
          0                 4           1             4    7     1      -0.1099091587E-04       4    7    1        -0.6296639558E-03      0.1591335528E-02

    ------------------------------------------------
       NWT REQUIRED            4 OUTER ITERATIONS 
       AND A TOTAL OF          7 INNER ITERATIONS.
    ------------------------------------------------

 NO OUTPUT CONTROL FOR STRESS PERIOD   10   TIME STEP   23
 
 SOLVING FOR HEAD 
                                                   Max.-Head-Change                         Max.-Flux-Residual
  Residual-Control   Outer-Iter.   Inner-Iter.     Column Row Layer    Maximum-Head-Change  Column Row Layer    Maximum-Flux-Residual          L2-NORM 
          0                 1           2             4    7     1       0.4098713838E-01       4    7    1         0.2162144130E+01      0.5440211925E+01
          0                 2           2             4    7     1      -0.3986949653E-02       4    7    1        -0.2162156758E+00      0.5440167315E+00
          0                 3           2             4    7     1       0.2714963508E-03       4    7    1         0.1513509415E-01      0.3808105372E-01
          0                 4           1             4    7     1      -0.1080309428E-04       4    7    1        -0.6190262557E-03      0.1557513558E-02

    ------------------------------------------------
       NWT REQUIRED            4 OUTER ITERATIONS 
       AND A TOTAL OF          7 INNER ITERATIONS.
    ------------------------------------------------

 NO OUTPUT CONTROL FOR STRESS PERIOD   10   TIME STEP   24
 
 SOLVING FOR HEAD 
                                                   Max.-Head-Change                         Max.-Flux-Residual
  Residual-Control   Outer-Iter.   Inner-Iter.     Column Row Layer    Maximum-Head-Change  Column Row Layer    Maximum-Flux-Residual          L2-NORM 
          0                 1           2             4    7     1       0.4035891569E-01       4    7    1         0.2129603714E+01      0.5326612530E+01
          0                 2           2             4    7     1      -0.3925910655E-02       4    7    1        -0.2129616682E+00      0.5326721120E+00
          0                 3           2             4    7     1       0.2673398161E-03       4    7    1         0.1490731322E-01      0.3728690597E-01
          0                 4           1             4    7     1      -0.1063770186E-04       4    7    1        -0.6097100047E-03      0.1525007137E-02

    ------------------------------------------------
       NWT REQUIRED            4 OUTER ITERATIONS 
       AND A TOTAL OF          7 INNER ITERATIONS.
    ------------------------------------------------

 NO OUTPUT CONTROL FOR STRESS PERIOD   10   TIME STEP   25
 
 SOLVING FOR HEAD 
                                                   Max.-Head-Change                         Max.-Flux-Residual
  Residual-Control   Outer-Iter.   Inner-Iter.     Column Row Layer    Maximum-Head-Change  Column Row Layer    Maximum-Flux-Residual          L2-NORM 
          0                 1           2             4    7     1       0.3972947318E-01       4    7    1         0.2096954633E+01      0.5217020121E+01
          0                 2           2             4    7     1      -0.3864614122E-02       4    7    1        -0.2096967871E+00      0.5216982487E+00
          0                 3           2             4    7     1       0.2631657450E-03       4    7    1         0.1467877117E-01      0.3651876652E-01
          0                 4           1             4    7     1      -0.1047161176E-04       4    7    1        -0.6003626229E-03      0.1493608869E-02

    ------------------------------------------------
       NWT REQUIRED            4 OUTER ITERATIONS 
       AND A TOTAL OF          7 INNER ITERATIONS.
    ------------------------------------------------

 NO OUTPUT CONTROL FOR STRESS PERIOD   10   TIME STEP   26
 
 SOLVING FOR HEAD 
                                                   Max.-Head-Change                         Max.-Flux-Residual
  Residual-Control   Outer-Iter.   Inner-Iter.     Column Row Layer    Maximum-Head-Change  Column Row Layer    Maximum-Flux-Residual          L2-NORM 
          0                 1           2             4    7     1       0.3910010395E-01       4    7    1         0.2064256974E+01      0.5111235793E+01
          0                 2           2             4    7     1      -0.3803393989E-02       4    7    1        -0.2064270414E+00      0.5111201376E+00
          0                 3           2             4    7     1       0.2589968779E-03       4    7    1         0.1444988869E-01      0.3577832523E-01
          0                 4           1             4    7     1      -0.1030572889E-04       4    7    1        -0.5910013269E-03      0.1463331119E-02

    ------------------------------------------------
       NWT REQUIRED            4 OUTER ITERATIONS 
       AND A TOTAL OF          7 INNER ITERATIONS.
    ------------------------------------------------

 NO OUTPUT CONTROL FOR STRESS PERIOD   10   TIME STEP   27
 
 SOLVING FOR HEAD 
                                                   Max.-Head-Change                         Max.-Flux-Residual
  Residual-Control   Outer-Iter.   Inner-Iter.     Column Row Layer    Maximum-Head-Change  Column Row Layer    Maximum-Flux-Residual          L2-NORM 
          0                 1           2             4    7     1       0.3847146980E-01       4    7    1         0.2031552119E+01      0.5009068925E+01
          0                 2           2             4    7     1      -0.3742245268E-02       4    7    1        -0.2031565704E+00      0.5009037265E+00
          0                 3           2             4    7     1       0.2548328737E-03       4    7    1         0.1422095545E-01      0.3506317083E-01
          0                 4           1             4    7     1      -0.1014003897E-04       4    7    1        -0.5816379301E-03      0.1434071807E-02

    ------------------------------------------------
       NWT REQUIRED            4 OUTER ITERATIONS 
       AND A TOTAL OF          7 INNER ITERATIONS.
    ------------------------------------------------

 NO OUTPUT CONTROL FOR STRESS PERIOD   10   TIME STEP   28
 
 SOLVING FOR HEAD 
                                                   Max.-Head-Change                         Max.-Flux-Residual
  Residual-Control   Outer-Iter.   Inner-Iter.     Column Row Layer    Maximum-Head-Change  Column Row Layer    Maximum-Flux-Residual          L2-NORM 
          0                 1           2             4    7     1       0.3784449818E-01       4    7    1         0.1998892650E+01      0.4910350445E+01
          0                 2           2             4    7     1      -0.3681258188E-02       4    7    1        -0.1998906325E+00      0.4910321029E+00
          0                 3           2             4    7     1       0.2506798782E-03       4    7    1         0.1399233963E-01      0.3437215965E-01
          0                 4           1             4    7     1      -0.9974787232E-05       4    7    1        -0.5722875292E-03      0.1405823913E-02

    ------------------------------------------------
       NWT REQUIRED            4 OUTER ITERATIONS 
       AND A TOTAL OF          7 INNER ITERATIONS.
    ------------------------------------------------

 NO OUTPUT CONTROL FOR STRESS PERIOD   10   TIME STEP   29
 
 SOLVING FOR HEAD 
                                                   Max.-Head-Change                         Max.-Flux-Residual
  Residual-Control   Outer-Iter.   Inner-Iter.     Column Row Layer    Maximum-Head-Change  Column Row Layer    Maximum-Flux-Residual          L2-NORM 
          0                 1           2             4    7     1       0.3721991176E-01       4    7    1         0.1966319369E+01      0.4814902561E+01
          0                 2           2             4    7     1      -0.3620503053E-02       4    7    1        -0.1966333089E+00      0.4814875436E+00
          0                 3           2             4    7     1       0.2465426778E-03       4    7    1         0.1376432684E-01      0.3370405083E-01
          0                 4           1             4    7     1      -0.9810164204E-05       4    7    1        -0.5629617849E-03      0.1378488062E-02

    ------------------------------------------------
       NWT REQUIRED            4 OUTER ITERATIONS 
       AND A TOTAL OF          7 INNER ITERATIONS.
    ------------------------------------------------

 NO OUTPUT CONTROL FOR STRESS PERIOD   10   TIME STEP   30



 STREAM LISTING     PERIOD     10   STEP       30

 LAYER ROW COL. STREAM  RCH.  FLOW INTO     FLOW TO   FLOW OUT OF   OVRLND.     DIRECT     STREAM       STREAM     STREAM     STREAM   STREAMBED  STREAMBED
                SEG.NO.  NO.  STRM. RCH.    AQUIFER    STRM. RCH.    RUNOFF     PRECIP       ET          HEAD       DEPTH      WIDTH   CONDCTNC.   GRADIENT

   1    1    1     1     1    3.5250E+01  2.8720E-01   3.4963E+01  0.000E+00  0.000E+00  0.000E+00  1.09434E+03  1.294E+00  1.486E+01  6.688E-02  1.431E+00
   1    2    2     1     2    3.4963E+01  4.4467E-01   3.4518E+01  0.000E+00  0.000E+00  0.000E+00  1.08935E+03  1.291E+00  1.480E+01  1.036E-01  1.430E+00
   1    3    3     1     3    3.4518E+01  3.7912E-01   3.4139E+01  0.000E+00  0.000E+00  0.000E+00  1.08371E+03  1.288E+00  1.474E+01  8.841E-02  1.429E+00
   1    3    4     1     4    3.4139E+01  3.4902E-01   3.3790E+01  0.000E+00  0.000E+00  0.000E+00  1.07869E+03  1.285E+00  1.468E+01  8.145E-02  1.428E+00
   1    4    5     2     1    3.1790E+01  3.4244E-01   3.1447E+01  0.000E+00  0.000E+00  0.000E+00  1.07332E+03  1.390E+00  1.200E+01  7.800E-02  1.463E+00
   1    5    6     2     2    3.1447E+01  2.6294E-01   3.1184E+01  0.000E+00  0.000E+00  0.000E+00  1.06789E+03  1.382E+00  1.200E+01  6.000E-02  1.461E+00
   1    6    6     2     3    3.1184E+01  2.6252E-01   3.0922E+01  0.000E+00  0.000E+00  0.000E+00  1.06317E+03  1.375E+00  1.200E+01  6.000E-02  1.458E+00
   1    7    6     2     4    3.0922E+01  2.6210E-01   3.0660E+01  0.000E+00  0.000E+00  0.000E+00  1.05844E+03  1.368E+00  1.200E+01  6.000E-02  1.456E+00
   1    8    6     2     5    3.0660E+01  2.6168E-01   3.0398E+01  0.000E+00  0.000E+00  0.000E+00  1.05372E+03  1.361E+00  1.200E+01  6.000E-02  1.454E+00
   1    3    5     3     1    2.0000E+00  2.8252E-01   1.7175E+00  0.000E+00  0.000E+00  0.000E+00  1.07555E+03  1.909E+00  9.636E+00  7.227E-02  1.955E+00
   1    3    6     3     2    1.7175E+00  2.4905E-01   1.4684E+00  0.000E+00  0.000E+00  0.000E+00  1.07264E+03  1.727E+00  8.909E+00  6.682E-02  1.864E+00
   1    3    7     3     3    1.4684E+00  1.9718E-01   1.2712E+00  0.000E+00  0.000E+00  0.000E+00  1.06987E+03  1.555E+00  8.218E+00  5.547E-02  1.777E+00
   1    4    8     3     4    1.2712E+00  2.2567E-01   1.0456E+00  0.000E+00  0.000E+00  0.000E+00  1.06682E+03  1.364E+00  7.455E+00  6.709E-02  1.682E+00
   1    5    8     3     5    1.0456E+00  1.5790E-01   8.8768E-01  0.000E+00  0.000E+00  0.000E+00  1.06362E+03  1.164E+00  6.655E+00  4.991E-02  1.582E+00
   1    6    8     3     6    8.8768E-01  5.5980E-02   8.3170E-01  0.000E+00  0.000E+00  0.000E+00  1.06158E+03  1.036E+00  6.145E+00  1.844E-02  1.518E+00
   1    5   10     4     1    1.0000E+01  9.0919E-02   9.9091E+00  0.000E+00  0.000E+00  0.000E+00  1.07836E+03  6.368E-01  1.000E+01  2.500E-02  1.212E+00
   1    5    9     4     2    9.9091E+00  1.8158E-01   9.7275E+00  0.000E+00  0.000E+00  0.000E+00  1.07154E+03  6.315E-01  1.000E+01  5.000E-02  1.211E+00
   1    6    8     4     3    9.7275E+00  1.2689E-01   9.6006E+00  0.000E+00  0.000E+00  0.000E+00  1.06381E+03  6.256E-01  1.000E+01  3.500E-02  1.209E+00
   1    6    8     5     1    1.0432E+01  2.2686E-01   1.0205E+01  0.000E+00  0.000E+00  0.000E+00  1.05868E+03  6.790E-01  1.542E+01  6.166E-02  1.226E+00
   1    7    7     5     2    1.0205E+01  2.7894E-01   9.9265E+00  0.000E+00  0.000E+00  0.000E+00  1.05417E+03  6.732E-01  1.519E+01  7.594E-02  1.224E+00
   1    8    7     5     3    9.9265E+00  1.9221E-01   9.7343E+00  0.000E+00  0.000E+00  0.000E+00  1.04992E+03  6.676E-01  1.497E+01  5.241E-02  1.223E+00
   1    8    6     5     4    9.7343E+00  1.3577E-01   9.5985E+00  0.000E+00  0.000E+00  0.000E+00  1.04691E+03  6.637E-01  1.482E+01  3.706E-02  1.221E+00
   1    9    6     6     1    3.9997E+01  2.7692E-01   3.9720E+01  0.000E+00  0.000E+00  0.000E+00  1.04434E+03  1.615E+00  1.200E+01  6.000E-02  1.538E+00
   1   10    7     6     2    3.9720E+01  2.7652E-01   3.9443E+01  0.000E+00  0.000E+00  0.000E+00  1.03979E+03  1.609E+00  1.200E+01  6.000E-02  1.536E+00
   1   11    7     6     3    3.9443E+01  2.7611E-01   3.9167E+01  0.000E+00  0.000E+00  0.000E+00  1.03524E+03  1.602E+00  1.200E+01  6.000E-02  1.534E+00
   1   12    7     6     4    3.9167E+01  2.7571E-01   3.8891E+01  0.000E+00  0.000E+00  0.000E+00  1.03069E+03  1.595E+00  1.200E+01  6.000E-02  1.532E+00
   1   13    7     6     5    3.8891E+01  7.5978E-03   3.8884E+01  0.000E+00  0.000E+00  0.000E+00  1.02750E+03  1.592E+00  1.200E+01  2.400E-02  1.055E-01
   1   14    9     7     1    1.5000E+02  1.3352E+00   1.4866E+02  0.000E+00  0.000E+00  0.000E+00  1.03987E+03  2.288E+00  5.529E+01  5.593E-01  7.957E-01
   1   13    8     7     2    1.4866E+02  1.8101E+00   1.4685E+02  0.000E+00  0.000E+00  0.000E+00  1.03478E+03  2.279E+00  5.526E+01  6.148E-01  9.814E-01
   1   13    7     7     3    1.4685E+02  1.3995E+00   1.4546E+02  0.000E+00  0.000E+00  0.000E+00  1.02969E+03  2.271E+00  5.522E+01  5.585E-01  8.353E-01
   1   13    6     8     1    1.8434E+02  9.0392E-01   1.8344E+02  0.000E+00  0.000E+00  0.000E+00  1.02492E+03  3.040E+00  4.409E+01  4.493E-01  6.707E-01
   1   13    5     8     2    1.8344E+02  1.3911E-01   1.8330E+02  0.000E+00  0.000E+00  0.000E+00  1.01866E+03  3.037E+00  4.404E+01  4.488E-01  1.033E-01
   1   13    4     8     3    1.8330E+02 -2.5852E+00   1.8588E+02  0.000E+00  0.000E+00  0.000E+00  1.01242E+03  3.045E+00  4.415E+01  4.499E+00 -1.915E-01
   1   13    3     8     4    1.8588E+02 -3.7053E+00   1.8959E+02  0.000E+00  0.000E+00  0.000E+00  1.00619E+03  3.064E+00  4.443E+01  4.528E+00 -2.728E-01
   1   13    2     8     5    1.8959E+02 -2.5989E+00   1.9219E+02  0.000E+00  0.000E+00  0.000E+00  9.99958E+02  3.083E+00  4.471E+01  4.556E+00 -1.902E-01
   1   13    1     8     6    1.9219E+02 -2.0096E+00   1.9419E+02  0.000E+00  0.000E+00  0.000E+00  9.94972E+02  3.097E+00  4.491E+01  2.746E+00 -2.440E-01
   1    8    6     9     1    0.0000E+00  0.0000E+00   0.0000E+00  0.000E+00  0.000E+00  0.000E+00  1.07875E+03  0.000E+00  4.000E+00  0.000E+00  1.000E+00
   1    8    5     9     2    0.0000E+00  0.0000E+00   0.0000E+00  0.000E+00  0.000E+00  0.000E+00  1.07825E+03  0.000E+00  4.000E+00  0.000E+00  1.000E+00





UNSATURATED ZONE PACKAGE VOLUMETRIC BUDGET FOR  TIME STEP    30 STRESS PERIOD   10
  ------------------------------------------------------------------------------



     CUMULATIVE VOLUMES      L**3       RATES FOR THIS TIME STEP      L**3/T
     ------------------                 ------------------------

           IN:                                      IN:
           ---                                      ---
        INFILTRATION =   424023181.2438          INFILTRATION =          12.0675

          OUT:                                     OUT:
          ----                                     ----
              UZF ET =   423865597.8800                UZF ET =          12.0675
        UZF RECHARGE =       73224.0000          UZF RECHARGE =       0.0000E+00

            IN - OUT =       84359.3638              IN - OUT =       0.0000E+00

          STORAGE:                                 STORAGE:
          --------                                 --------
      STORAGE CHANGE =       84359.1881        STORAGE CHANGE =      -2.2824E-16

 PERCENT DISCREPANCY IS DIFFERENCE BETWEEN IN-OUT MINUS CHANGE IN STORAGE
 DIVIDED BY THE AVERAGE OF IN AND OUT TIMES 100

 PERCENT DISCREPANCY =           0.00     PERCENT DISCREPANCY =           0.00






1
  VOLUMETRIC BUDGET FOR AGRICULTURAL FIELDS AT  END OF TIME STEP   30, STRESS PERIOD  10
  ------------------------------------------------------------------------------

     CUMULATIVE VOLUMES      L**3       RATES FOR THIS TIME STEP      L**3/T
     ------------------                 ------------------------

           IN:                                      IN:
           ---                                      ---
               AG WELLS  =   403889344.0000                 AG WELLS  =          11.2200
      DIVERSION SEGMENTS =           0.0000        DIVERSION SEGMENTS =           0.0000
       IRRIGATION PONDS  =           0.0000         IRRIGATION PONDS  =           0.0000
           GW IRRIGATION =           0.0000             GW IRRIGATION =           0.0000
           SW IRRIGATION =           0.0000             SW IRRIGATION =           0.0000
        SYSTEM LOSSES GW =           0.0000          SYSTEM LOSSES GW =           0.0000
        SYSTEM LOSSES SW =           0.0000          SYSTEM LOSSES SW =           0.0000

                TOTAL IN =   403889344.0000                  TOTAL IN =          11.2200

          OUT:                                     OUT:
          ----                                     ----
               AG WELLS  =           0.0000                 AG WELLS  =           0.0000
      DIVERSION SEGMENTS =           0.0000        DIVERSION SEGMENTS =           0.0000
       IRRIGATION PONDS  =           0.0000         IRRIGATION PONDS  =           0.0000
           GW IRRIGATION =   403889344.0000             GW IRRIGATION =          11.2200
           SW IRRIGATION =           0.0000             SW IRRIGATION =           0.0000
        SYSTEM LOSSES GW =           0.0000          SYSTEM LOSSES GW =           0.0000
        SYSTEM LOSSES SW =           0.0000          SYSTEM LOSSES SW =           0.0000

               TOTAL OUT =   403889344.0000                 TOTAL OUT =          11.2200

                IN - OUT =           0.0000                  IN - OUT =           0.0000

     PERCENT DISCREPANCY =           0.00         PERCENT DISCREPANCY =           0.00



1
  VOLUMETRIC BUDGET FOR ENTIRE MODEL AT END OF TIME STEP   30, STRESS PERIOD  10
  ------------------------------------------------------------------------------

     CUMULATIVE VOLUMES      L**3       RATES FOR THIS TIME STEP      L**3/T
     ------------------                 ------------------------

           IN:                                      IN:
           ---                                      ---
             STORAGE     =   439836576.0000               STORAGE     =          19.4528
       CONSTANT HEAD     =           0.0000         CONSTANT HEAD     =           0.0000
     HEAD DEP BOUNDS     =     6787846.5000       HEAD DEP BOUNDS     =           0.2857
      STREAM LEAKAGE     =   292757344.0000        STREAM LEAKAGE     =          11.9538
        UZF RECHARGE     =       73223.9531          UZF RECHARGE     =           0.0000
               GW ET     =           0.0000                 GW ET     =           0.0000
     SURFACE LEAKAGE     =           0.0000       SURFACE LEAKAGE     =           0.0000
           AG WELLS      =           0.0000             AG WELLS      =           0.0000

                TOTAL IN =   739454976.0000                  TOTAL IN =          31.6923

          OUT:                                     OUT:
          ----                                     ----
             STORAGE     =    74206960.0000               STORAGE     =           9.2525
       CONSTANT HEAD     =           0.0000         CONSTANT HEAD     =           0.0000
     HEAD DEP BOUNDS     =     6967142.5000       HEAD DEP BOUNDS     =           0.2928
      STREAM LEAKAGE     =   247727792.0000        STREAM LEAKAGE     =          10.8990
        UZF RECHARGE     =           0.0000          UZF RECHARGE     =           0.0000
               GW ET     =     6665826.5000                 GW ET     =       2.8064E-02
     SURFACE LEAKAGE     =           0.0000       SURFACE LEAKAGE     =           0.0000
           AG WELLS      =   403889344.0000             AG WELLS      =          11.2200

               TOTAL OUT =   739457024.0000                 TOTAL OUT =          31.6923

                IN - OUT =       -2048.0000                  IN - OUT =      -3.0518E-05

     PERCENT DISCREPANCY =          -0.00         PERCENT DISCREPANCY =          -0.00






         TIME SUMMARY AT END OF TIME STEP   30 IN STRESS PERIOD   10
                    SECONDS     MINUTES      HOURS       DAYS        YEARS
                    -----------------------------------------------------------
   TIME STEP LENGTH  87667.      1461.1      24.352      1.0147     2.77799E-03
 STRESS PERIOD TIME 2.63000E+06  43833.      730.56      30.440     8.33397E-02
         TOTAL TIME 2.37564E+07 3.95940E+05  6599.0      274.96     0.75279    
1
1
                            STRESS PERIOD NO.   11, LENGTH =   2630000.    
                            -----------------------------------------------

                              NUMBER OF TIME STEPS =    30

                               MULTIPLIER FOR DELT =     1.000

                            INITIAL TIME STEP SIZE =   87666.66    

 REUSING NON-PARAMETER GHB CELLS FROM LAST STRESS PERIOD

      2 GHB CELLS

 REUSING STREAM SEGMENT DATA FROM LAST STRESS PERIOD



            AREAL INFILTRATION RATE
 READING ON UNIT   19 WITH FORMAT: (FREE)              

            1           2           3           4           5           6           7           8           9          10
 ........................................................................................................................
   1   1.0000E-10  2.0000E-10   0.000       0.000       0.000       0.000       0.000       0.000       0.000       0.000    
   2   2.0000E-10  1.0000E-10  2.0000E-10   0.000       0.000      8.0000E-10  8.0000E-10  5.0000E-10   0.000       0.000    
   3    0.000      5.0000E-10  1.0000E-10  1.0000E-10  8.0000E-10  8.0000E-10  5.0000E-10  5.0000E-10   0.000       0.000    
   4   8.0000E-10  5.0000E-10  1.0000E-10  1.0000E-10  1.0000E-10  1.0000E-10  1.0000E-10  1.0000E-10  2.0000E-10   0.000    
   5   8.0000E-10  5.0000E-10  1.0000E-10  1.0000E-10  1.0000E-10  1.0000E-10  1.0000E-10  1.0000E-10  1.0000E-10  1.0000E-10
   6   8.0000E-10  5.0000E-10  5.0000E-10  2.0000E-10  2.0000E-10  1.0000E-10  1.0000E-10  1.0000E-10  1.0000E-10  5.0000E-10
   7   8.0000E-10  5.0000E-10  5.0000E-10  2.0000E-10  2.0000E-10  1.0000E-10  1.0000E-10  2.0000E-10  2.0000E-10   0.000    
   8    0.000      5.0000E-10  5.0000E-10  2.0000E-10  2.0000E-10  1.0000E-10  1.0000E-10  2.0000E-10  5.0000E-10   0.000    
   9    0.000      5.0000E-10  5.0000E-10  2.0000E-10  2.0000E-10  1.0000E-10  1.0000E-10  2.0000E-10  5.0000E-10   0.000    
  10    0.000      5.0000E-10  5.0000E-10  2.0000E-10  2.0000E-10  1.0000E-10  1.0000E-10  2.0000E-10  5.0000E-10  8.0000E-10
  11    0.000      1.0000E-10  1.0000E-10  1.0000E-10  1.0000E-10  1.0000E-10  1.0000E-10  2.0000E-10  5.0000E-10   0.000    
  12   1.0000E-10  1.0000E-10  1.0000E-10  1.0000E-10  1.0000E-10  1.0000E-10  1.0000E-10  1.0000E-10  2.0000E-10   0.000    
  13   1.0000E-10  1.0000E-10  2.0000E-10  2.0000E-10  2.0000E-10  2.0000E-10  2.0000E-10  1.0000E-10  1.0000E-10   0.000    
  14    0.000      2.0000E-10  5.0000E-10  5.0000E-10  5.0000E-10  5.0000E-10  5.0000E-10  2.0000E-10  1.0000E-10   0.000    
  15    0.000       0.000      8.0000E-10  8.0000E-10  8.0000E-10  8.0000E-10   0.000       0.000       0.000       0.000    

                  ET RATE =  5.000000E-09

 USING ET EXTINCTION DEPTH FROM PREVIOUS STRESS PERIOD. CURRENT PERIOD IS:      11

 USING EXTINCTION WATER CONTENT FROM PREVIOUS STRESS PERIOD. CURRENT PERIOD IS:      11

 USING AIR ENTRY PRESSURE FROM PREVIOUS STRESS PERIOD. CURRENT PERIOD IS:      11

 USING ROOT PRESSURE HEAD FROM PREVIOUS STRESS PERIOD. CURRENT PERIOD IS:      11

 USING ROOT ACTIVITY FROM PREVIOUS STRESS PERIOD. CURRENT PERIOD IS:      11

 PROCESSING AG STRESS PERIOD DATA

 READING AG STRESS PERIOD DATA

 READING IRRIGATION SEGMENT

 READING IRRIGATION WELL

 READING SUPPLEMENTAL WELL

 NO IRRPOND OR REUSING IRRPOND DATA FROM LAST STRESS PERIOD

 END PROCESSING AG STRESS PERIOD DATA OPTIONS
 
 SOLVING FOR HEAD 
                                                   Max.-Head-Change                         Max.-Flux-Residual
  Residual-Control   Outer-Iter.   Inner-Iter.     Column Row Layer    Maximum-Head-Change  Column Row Layer    Maximum-Flux-Residual          L2-NORM 
          0                 1           2             4    7     1       0.7241925295E-01       4    7    1         0.3803862465E+01      0.8727765505E+01
          0                 2           2             4    7     1      -0.7044472547E-02       4    7    1        -0.3803899593E+00      0.8727627858E+00
          0                 3           2             4    7     1       0.4797019366E-03       4    7    1         0.2662727352E-01      0.6109230472E-01
          0                 4           1             4    7     1      -0.1908779096E-04       4    7    1        -0.1089057159E-02      0.2498620845E-02

    ------------------------------------------------
       NWT REQUIRED            4 OUTER ITERATIONS 
       AND A TOTAL OF          7 INNER ITERATIONS.
    ------------------------------------------------

 NO OUTPUT CONTROL FOR STRESS PERIOD   11   TIME STEP    1
 
 SOLVING FOR HEAD 
                                                   Max.-Head-Change                         Max.-Flux-Residual
  Residual-Control   Outer-Iter.   Inner-Iter.     Column Row Layer    Maximum-Head-Change  Column Row Layer    Maximum-Flux-Residual          L2-NORM 
          0                 1           2             4    7     1       0.7161550513E-01       4    7    1         0.3762748413E+01      0.8557749840E+01
          0                 2           2             4    7     1      -0.6966292049E-02       4    7    1        -0.3762787032E+00      0.8557357421E+00
          0                 3           2             4    7     1       0.4743781123E-03       4    7    1         0.2633948404E-01      0.5989814733E-01
          0                 4           1             4    7     1      -0.1887595111E-04       4    7    1        -0.1077286558E-02      0.2449603439E-02

    ------------------------------------------------
       NWT REQUIRED            4 OUTER ITERATIONS 
       AND A TOTAL OF          7 INNER ITERATIONS.
    ------------------------------------------------

 NO OUTPUT CONTROL FOR STRESS PERIOD   11   TIME STEP    2
 
 SOLVING FOR HEAD 
                                                   Max.-Head-Change                         Max.-Flux-Residual
  Residual-Control   Outer-Iter.   Inner-Iter.     Column Row Layer    Maximum-Head-Change  Column Row Layer    Maximum-Flux-Residual          L2-NORM 
          0                 1           2             4    7     1       0.7080108550E-01       4    7    1         0.3720980998E+01      0.8383957840E+01
          0                 2           2             4    7     1      -0.6887073118E-02       4    7    1        -0.3721020866E+00      0.8383613348E+00
          0                 3           2             4    7     1       0.4689835788E-03       4    7    1         0.2604711959E-01      0.5868240913E-01
          0                 4           1             4    7     1      -0.1866129788E-04       4    7    1        -0.1065328853E-02      0.2400102298E-02

    ------------------------------------------------
       NWT REQUIRED            4 OUTER ITERATIONS 
       AND A TOTAL OF          7 INNER ITERATIONS.
    ------------------------------------------------

 NO OUTPUT CONTROL FOR STRESS PERIOD   11   TIME STEP    3
 
 SOLVING FOR HEAD 
                                                   Max.-Head-Change                         Max.-Flux-Residual
  Residual-Control   Outer-Iter.   Inner-Iter.     Column Row Layer    Maximum-Head-Change  Column Row Layer    Maximum-Flux-Residual          L2-NORM 
          0                 1           2             4    7     1       0.6997805767E-01       4    7    1         0.3678674813E+01      0.8216721574E+01
          0                 2           2             4    7     1      -0.6807016516E-02       4    7    1        -0.3678715712E+00      0.8216413291E+00
          0                 3           2             4    7     1       0.4635320053E-03       4    7    1         0.2575098240E-01      0.5751218011E-01
          0                 4           1             4    7     1      -0.1844437434E-04       4    7    1        -0.1053216815E-02      0.2352081317E-02

    ------------------------------------------------
       NWT REQUIRED            4 OUTER ITERATIONS 
       AND A TOTAL OF          7 INNER ITERATIONS.
    ------------------------------------------------

 NO OUTPUT CONTROL FOR STRESS PERIOD   11   TIME STEP    4
 
 SOLVING FOR HEAD 
                                                   Max.-Head-Change                         Max.-Flux-Residual
  Residual-Control   Outer-Iter.   Inner-Iter.     Column Row Layer    Maximum-Head-Change  Column Row Layer    Maximum-Flux-Residual          L2-NORM 
          0                 1           2             4    7     1       0.6914782418E-01       4    7    1         0.3635907696E+01      0.8055654587E+01
          0                 2           2             4    7     1      -0.6726258697E-02       4    7    1        -0.3635949424E+00      0.8055391044E+00
          0                 3           2             4    7     1       0.4580326853E-03       4    7    1         0.2545161747E-01      0.5638533520E-01
          0                 4           1             4    7     1      -0.1822555177E-04       4    7    1        -0.1040972792E-02      0.2305995762E-02

    ------------------------------------------------
       NWT REQUIRED            4 OUTER ITERATIONS 
       AND A TOTAL OF          7 INNER ITERATIONS.
    ------------------------------------------------

 NO OUTPUT CONTROL FOR STRESS PERIOD   11   TIME STEP    5
 
 SOLVING FOR HEAD 
                                                   Max.-Head-Change                         Max.-Flux-Residual
  Residual-Control   Outer-Iter.   Inner-Iter.     Column Row Layer    Maximum-Head-Change  Column Row Layer    Maximum-Flux-Residual          L2-NORM 
          0                 1           2             4    7     1       0.6831208408E-01       4    7    1         0.3592774236E+01      0.7900384706E+01
          0                 2           2             4    7     1      -0.6644964965E-02       4    7    1        -0.3592816611E+00      0.7900153479E+00
          0                 3           2             4    7     1       0.4524968736E-03       4    7    1         0.2514968703E-01      0.5529899738E-01
          0                 4           1             4    7     1      -0.1800527664E-04       4    7    1        -0.1028623818E-02      0.2261629181E-02

    ------------------------------------------------
       NWT REQUIRED            4 OUTER ITERATIONS 
       AND A TOTAL OF          7 INNER ITERATIONS.
    ------------------------------------------------

 NO OUTPUT CONTROL FOR STRESS PERIOD   11   TIME STEP    6
 
 SOLVING FOR HEAD 
                                                   Max.-Head-Change                         Max.-Flux-Residual
  Residual-Control   Outer-Iter.   Inner-Iter.     Column Row Layer    Maximum-Head-Change  Column Row Layer    Maximum-Flux-Residual          L2-NORM 
          0                 1           2             4    7     1       0.6747228682E-01       4    7    1         0.3549355238E+01      0.7750569273E+01
          0                 2           2             4    7     1      -0.6563276333E-02       4    7    1        -0.3549398095E+00      0.7750366749E+00
          0                 3           2             4    7     1       0.4469341734E-03       4    7    1         0.2484575684E-01      0.5425069775E-01
          0                 4           1             4    7     1      -0.1778393139E-04       4    7    1        -0.1016193058E-02      0.2218725891E-02

    ------------------------------------------------
       NWT REQUIRED            4 OUTER ITERATIONS 
       AND A TOTAL OF          7 INNER ITERATIONS.
    ------------------------------------------------

 NO OUTPUT CONTROL FOR STRESS PERIOD   11   TIME STEP    7
 
 SOLVING FOR HEAD 
                                                   Max.-Head-Change                         Max.-Flux-Residual
  Residual-Control   Outer-Iter.   Inner-Iter.     Column Row Layer    Maximum-Head-Change  Column Row Layer    Maximum-Flux-Residual          L2-NORM 
          0                 1           2             4    7     1       0.6662964537E-01       4    7    1         0.3505718557E+01      0.7605897714E+01
          0                 2           2             4    7     1      -0.6481310815E-02       4    7    1        -0.3505761746E+00      0.7605719968E+00
          0                 3           2             4    7     1       0.4413526208E-03       4    7    1         0.2454030196E-01      0.5323837598E-01
          0                 4           1             4    7     1      -0.1756183644E-04       4    7    1        -0.1003699941E-02      0.2177320281E-02

    ------------------------------------------------
       NWT REQUIRED            4 OUTER ITERATIONS 
       AND A TOTAL OF          7 INNER ITERATIONS.
    ------------------------------------------------

 NO OUTPUT CONTROL FOR STRESS PERIOD   11   TIME STEP    8
 
 SOLVING FOR HEAD 
                                                   Max.-Head-Change                         Max.-Flux-Residual
  Residual-Control   Outer-Iter.   Inner-Iter.     Column Row Layer    Maximum-Head-Change  Column Row Layer    Maximum-Flux-Residual          L2-NORM 
          0                 1           2             4    7     1       0.6578540984E-01       4    7    1         0.3461934378E+01      0.7466073011E+01
          0                 2           2             4    7     1      -0.6399190035E-02       4    7    1        -0.3461977763E+00      0.7465917335E+00
          0                 3           2             4    7     1       0.4357604970E-03       4    7    1         0.2423381376E-01      0.5225993706E-01
          0                 4           1             4    7     1      -0.1733932080E-04       4    7    1        -0.9911645636E-03      0.2137359999E-02

    ------------------------------------------------
       NWT REQUIRED            4 OUTER ITERATIONS 
       AND A TOTAL OF          7 INNER ITERATIONS.
    ------------------------------------------------

 NO OUTPUT CONTROL FOR STRESS PERIOD   11   TIME STEP    9
 
 SOLVING FOR HEAD 
                                                   Max.-Head-Change                         Max.-Flux-Residual
  Residual-Control   Outer-Iter.   Inner-Iter.     Column Row Layer    Maximum-Head-Change  Column Row Layer    Maximum-Flux-Residual          L2-NORM 
          0                 1           2             4    7     1       0.6494087432E-01       4    7    1         0.3418074815E+01      0.7330841196E+01
          0                 2           2             4    7     1      -0.6317039891E-02       4    7    1        -0.3418118274E+00      0.7330705045E+00
          0                 3           2             4    7     1       0.4301663750E-03       4    7    1         0.2392679712E-01      0.5131360746E-01
          0                 4           1             4    7     1      -0.1711672527E-04       4    7    1        -0.9786075516E-03      0.2098645393E-02

    ------------------------------------------------
       NWT REQUIRED            4 OUTER ITERATIONS 
       AND A TOTAL OF          7 INNER ITERATIONS.
    ------------------------------------------------

 NO OUTPUT CONTROL FOR STRESS PERIOD   11   TIME STEP   10
 
 SOLVING FOR HEAD 
                                                   Max.-Head-Change                         Max.-Flux-Residual
  Residual-Control   Outer-Iter.   Inner-Iter.     Column Row Layer    Maximum-Head-Change  Column Row Layer    Maximum-Flux-Residual          L2-NORM 
          0                 1           2             4    7     1       0.6409697067E-01       4    7    1         0.3374192370E+01      0.7199961867E+01
          0                 2           2             4    7     1      -0.6234951048E-02       4    7    1        -0.3374235794E+00      0.7199841778E+00
          0                 3           2             4    7     1       0.4245764296E-03       4    7    1         0.2361961967E-01      0.5039764894E-01
          0                 4           1             4    7     1      -0.1689429610E-04       4    7    1        -0.9660439853E-03      0.2061128215E-02

    ------------------------------------------------
       NWT REQUIRED            4 OUTER ITERATIONS 
       AND A TOTAL OF          7 INNER ITERATIONS.
    ------------------------------------------------

 NO OUTPUT CONTROL FOR STRESS PERIOD   11   TIME STEP   11
 
 SOLVING FOR HEAD 
                                                   Max.-Head-Change                         Max.-Flux-Residual
  Residual-Control   Outer-Iter.   Inner-Iter.     Column Row Layer    Maximum-Head-Change  Column Row Layer    Maximum-Flux-Residual          L2-NORM 
          0                 1           2             4    7     1       0.6325481789E-01       4    7    1         0.3330349956E+01      0.7073202611E+01
          0                 2           2             4    7     1      -0.6153032370E-02       4    7    1        -0.3330393247E+00      0.7073099925E+00
          0                 3           2             4    7     1       0.4189980730E-03       4    7    1         0.2331272184E-01      0.4951090175E-01
          0                 4           1             4    7     1      -0.1667232802E-04       4    7    1        -0.9534918379E-03      0.2024945759E-02

    ------------------------------------------------
       NWT REQUIRED            4 OUTER ITERATIONS 
       AND A TOTAL OF          7 INNER ITERATIONS.
    ------------------------------------------------

 NO OUTPUT CONTROL FOR STRESS PERIOD   11   TIME STEP   12
 
 SOLVING FOR HEAD 
                                                   Max.-Head-Change                         Max.-Flux-Residual
  Residual-Control   Outer-Iter.   Inner-Iter.     Column Row Layer    Maximum-Head-Change  Column Row Layer    Maximum-Flux-Residual          L2-NORM 
          0                 1           2             4    7     1       0.6241518129E-01       4    7    1         0.3286590994E+01      0.6950349513E+01
          0                 2           2             4    7     1      -0.6071358242E-02       4    7    1        -0.3286634064E+00      0.6950215883E+00
          0                 3           2             4    7     1       0.4134363707E-03       4    7    1         0.2300640763E-01      0.4865054958E-01
          0                 4           1             4    7     1      -0.1645102272E-04       4    7    1        -0.9409635636E-03      0.1989757398E-02

    ------------------------------------------------
       NWT REQUIRED            4 OUTER ITERATIONS 
       AND A TOTAL OF          7 INNER ITERATIONS.
    ------------------------------------------------

 NO OUTPUT CONTROL FOR STRESS PERIOD   11   TIME STEP   13
 
 SOLVING FOR HEAD 
                                                   Max.-Head-Change                         Max.-Flux-Residual
  Residual-Control   Outer-Iter.   Inner-Iter.     Column Row Layer    Maximum-Head-Change  Column Row Layer    Maximum-Flux-Residual          L2-NORM 
          0                 1           2             4    7     1       0.6157902958E-01       4    7    1         0.3242969767E+01      0.6831217874E+01
          0                 2           2             4    7     1      -0.5990023134E-02       4    7    1        -0.3243012539E+00      0.6831136472E+00
          0                 3           2             4    7     1       0.4078977557E-03       4    7    1         0.2270105712E-01      0.4781708855E-01
          0                 4           1             4    7     1      -0.1623063580E-04       4    7    1        -0.9284747100E-03      0.1955682340E-02

    ------------------------------------------------
       NWT REQUIRED            4 OUTER ITERATIONS 
       AND A TOTAL OF          7 INNER ITERATIONS.
    ------------------------------------------------

 NO OUTPUT CONTROL FOR STRESS PERIOD   11   TIME STEP   14
 
 SOLVING FOR HEAD 
                                                   Max.-Head-Change                         Max.-Flux-Residual
  Residual-Control   Outer-Iter.   Inner-Iter.     Column Row Layer    Maximum-Head-Change  Column Row Layer    Maximum-Flux-Residual          L2-NORM 
          0                 1           2             4    7     1       0.6074698000E-01       4    7    1         0.3199521890E+01      0.6715638446E+01
          0                 2           2             4    7     1      -0.5909086874E-02       4    7    1        -0.3199564294E+00      0.6715567126E+00
          0                 3           2             4    7     1       0.4023863015E-03       4    7    1         0.2239691961E-01      0.4700818762E-01
          0                 4           1             4    7     1      -0.1601133038E-04       4    7    1        -0.9160354791E-03      0.1922588602E-02

    ------------------------------------------------
       NWT REQUIRED            4 OUTER ITERATIONS 
       AND A TOTAL OF          7 INNER ITERATIONS.
    ------------------------------------------------

 NO OUTPUT CONTROL FOR STRESS PERIOD   11   TIME STEP   15
 
 SOLVING FOR HEAD 
                                                   Max.-Head-Change                         Max.-Flux-Residual
  Residual-Control   Outer-Iter.   Inner-Iter.     Column Row Layer    Maximum-Head-Change  Column Row Layer    Maximum-Flux-Residual          L2-NORM 
          0                 1           2             4    7     1       0.5991986441E-01       4    7    1         0.3156293981E+01      0.6603438779E+01
          0                 2           2             4    7     1      -0.5828630465E-02       4    7    1        -0.3156335957E+00      0.6603376292E+00
          0                 3           2             4    7     1       0.3969075243E-03       4    7    1         0.2209432151E-01      0.4622293617E-01
          0                 4           1             4    7     1      -0.1579332487E-04       4    7    1        -0.9036592091E-03      0.1890497427E-02

    ------------------------------------------------
       NWT REQUIRED            4 OUTER ITERATIONS 
       AND A TOTAL OF          7 INNER ITERATIONS.
    ------------------------------------------------

 NO OUTPUT CONTROL FOR STRESS PERIOD   11   TIME STEP   16
 
 SOLVING FOR HEAD 
                                                   Max.-Head-Change                         Max.-Flux-Residual
  Residual-Control   Outer-Iter.   Inner-Iter.     Column Row Layer    Maximum-Head-Change  Column Row Layer    Maximum-Flux-Residual          L2-NORM 
          0                 1           2             4    7     1       0.5909817770E-01       4    7    1         0.3113314562E+01      0.6494446491E+01
          0                 2           2             4    7     1      -0.5748702049E-02       4    7    1        -0.3113356056E+00      0.6494329656E+00
          0                 3           2             4    7     1       0.3914647026E-03       4    7    1         0.2179346255E-01      0.4545966046E-01
          0                 4           1             4    7     1      -0.1557674971E-04       4    7    1        -0.8913540505E-03      0.1859253727E-02

    ------------------------------------------------
       NWT REQUIRED            4 OUTER ITERATIONS 
       AND A TOTAL OF          7 INNER ITERATIONS.
    ------------------------------------------------

 NO OUTPUT CONTROL FOR STRESS PERIOD   11   TIME STEP   17
 
 SOLVING FOR HEAD 
                                                   Max.-Head-Change                         Max.-Flux-Residual
  Residual-Control   Outer-Iter.   Inner-Iter.     Column Row Layer    Maximum-Head-Change  Column Row Layer    Maximum-Flux-Residual          L2-NORM 
          0                 1           2             4    7     1       0.5828262297E-01       4    7    1         0.3070623899E+01      0.6388523816E+01
          0                 2           2             4    7     1      -0.5669370056E-02       4    7    1        -0.3070664866E+00      0.6388475893E+00
          0                 3           2             4    7     1       0.3860624953E-03       4    7    1         0.2149462458E-01      0.4471872374E-01
          0                 4           1             4    7     1      -0.1536179036E-04       4    7    1        -0.8791315506E-03      0.1828942091E-02

    ------------------------------------------------
       NWT REQUIRED            4 OUTER ITERATIONS 
       AND A TOTAL OF          7 INNER ITERATIONS.
    ------------------------------------------------

 NO OUTPUT CONTROL FOR STRESS PERIOD   11   TIME STEP   18
 
 SOLVING FOR HEAD 
                                                   Max.-Head-Change                         Max.-Flux-Residual
  Residual-Control   Outer-Iter.   Inner-Iter.     Column Row Layer    Maximum-Head-Change  Column Row Layer    Maximum-Flux-Residual          L2-NORM 
          0                 1           2             4    7     1       0.5747371577E-01       4    7    1         0.3028251144E+01      0.6285549151E+01
          0                 2           2             4    7     1      -0.5590684618E-02       4    7    1        -0.3028291543E+00      0.6285507291E+00
          0                 3           2             4    7     1       0.3807043165E-03       4    7    1         0.2119801172E-01      0.4399802128E-01
          0                 4           1             4    7     1      -0.1514858349E-04       4    7    1        -0.8670000648E-03      0.1799486743E-02

    ------------------------------------------------
       NWT REQUIRED            4 OUTER ITERATIONS 
       AND A TOTAL OF          7 INNER ITERATIONS.
    ------------------------------------------------

 NO OUTPUT CONTROL FOR STRESS PERIOD   11   TIME STEP   19
 
 SOLVING FOR HEAD 
                                                   Max.-Head-Change                         Max.-Flux-Residual
  Residual-Control   Outer-Iter.   Inner-Iter.     Column Row Layer    Maximum-Head-Change  Column Row Layer    Maximum-Flux-Residual          L2-NORM 
          0                 1           2             4    7     1       0.5667191887E-01       4    7    1         0.2986223030E+01      0.6185376733E+01
          0                 2           2             4    7     1      -0.5512690767E-02       4    7    1        -0.2986262826E+00      0.6185340116E+00
          0                 3           2             4    7     1       0.3753932330E-03       4    7    1         0.2090381115E-01      0.4329688622E-01
          0                 4           1             4    7     1      -0.1493725043E-04       4    7    1        -0.8549672373E-03      0.1770806068E-02

    ------------------------------------------------
       NWT REQUIRED            4 OUTER ITERATIONS 
       AND A TOTAL OF          7 INNER ITERATIONS.
    ------------------------------------------------

 NO OUTPUT CONTROL FOR STRESS PERIOD   11   TIME STEP   20
 
 SOLVING FOR HEAD 
                                                   Max.-Head-Change                         Max.-Flux-Residual
  Residual-Control   Outer-Iter.   Inner-Iter.     Column Row Layer    Maximum-Head-Change  Column Row Layer    Maximum-Flux-Residual          L2-NORM 
          0                 1           2             4    7     1       0.5587777736E-01       4    7    1         0.2944570857E+01      0.6087890588E+01
          0                 2           2             4    7     1      -0.5435441535E-02       4    7    1        -0.2944610021E+00      0.6087858349E+00
          0                 3           2             4    7     1       0.3701328558E-03       4    7    1         0.2061224199E-01      0.4261455958E-01
          0                 4           1             4    7     1      -0.1472793521E-04       4    7    1        -0.8430420564E-03      0.1742904924E-02

    ------------------------------------------------
       NWT REQUIRED            4 OUTER ITERATIONS 
       AND A TOTAL OF          7 INNER ITERATIONS.
    ------------------------------------------------

 NO OUTPUT CONTROL FOR STRESS PERIOD   11   TIME STEP   21
 
 SOLVING FOR HEAD 
                                                   Max.-Head-Change                         Max.-Flux-Residual
  Residual-Control   Outer-Iter.   Inner-Iter.     Column Row Layer    Maximum-Head-Change  Column Row Layer    Maximum-Flux-Residual          L2-NORM 
          0                 1           2             4    7     1       0.5509138609E-01       4    7    1         0.2903300966E+01      0.5992966653E+01
          0                 2           2             4    7     1      -0.5358946151E-02       4    7    1        -0.2903339474E+00      0.5992938532E+00
          0                 3           2             4    7     1       0.3649238130E-03       4    7    1         0.2032334866E-01      0.4195016465E-01
          0                 4           1             4    7     1      -0.1452066259E-04       4    7    1        -0.8312262855E-03      0.1715744190E-02

    ------------------------------------------------
       NWT REQUIRED            4 OUTER ITERATIONS 
       AND A TOTAL OF          7 INNER ITERATIONS.
    ------------------------------------------------

 NO OUTPUT CONTROL FOR STRESS PERIOD   11   TIME STEP   22
 
 SOLVING FOR HEAD 
                                                   Max.-Head-Change                         Max.-Flux-Residual
  Residual-Control   Outer-Iter.   Inner-Iter.     Column Row Layer    Maximum-Head-Change  Column Row Layer    Maximum-Flux-Residual          L2-NORM 
          0                 1           2             4    7     1       0.5431321100E-01       4    7    1         0.2862440198E+01      0.5900503425E+01
          0                 2           2             4    7     1      -0.5283249947E-02       4    7    1        -0.2862478030E+00      0.5900478895E+00
          0                 3           2             4    7     1       0.3597691921E-03       4    7    1         0.2003731908E-01      0.4130298282E-01
          0                 4           1             4    7     1      -0.1431555528E-04       4    7    1        -0.8195276594E-03      0.1689269842E-02

    ------------------------------------------------
       NWT REQUIRED            4 OUTER ITERATIONS 
       AND A TOTAL OF          7 INNER ITERATIONS.
    ------------------------------------------------

 NO OUTPUT CONTROL FOR STRESS PERIOD   11   TIME STEP   23
 
 SOLVING FOR HEAD 
                                                   Max.-Head-Change                         Max.-Flux-Residual
  Residual-Control   Outer-Iter.   Inner-Iter.     Column Row Layer    Maximum-Head-Change  Column Row Layer    Maximum-Flux-Residual          L2-NORM 
          0                 1           2             4    7     1       0.5354367683E-01       4    7    1         0.2822012714E+01      0.5810409591E+01
          0                 2           2             4    7     1      -0.5208394245E-02       4    7    1        -0.2822049852E+00      0.5810388051E+00
          0                 3           2             4    7     1       0.3546718059E-03       4    7    1         0.1975432236E-01      0.4067235071E-01
          0                 4           1             4    7     1      -0.1411272532E-04       4    7    1        -0.8079530703E-03      0.1663465305E-02

    ------------------------------------------------
       NWT REQUIRED            4 OUTER ITERATIONS 
       AND A TOTAL OF          7 INNER ITERATIONS.
    ------------------------------------------------

 NO OUTPUT CONTROL FOR STRESS PERIOD   11   TIME STEP   24
 
 SOLVING FOR HEAD 
                                                   Max.-Head-Change                         Max.-Flux-Residual
  Residual-Control   Outer-Iter.   Inner-Iter.     Column Row Layer    Maximum-Head-Change  Column Row Layer    Maximum-Flux-Residual          L2-NORM 
          0                 1           2             4    7     1       0.5278302589E-01       4    7    1         0.2782033227E+01      0.5722580437E+01
          0                 2           2             4    7     1      -0.5134402609E-02       4    7    1        -0.2782069660E+00      0.5722487442E+00
          0                 3           2             4    7     1       0.3496332599E-03       4    7    1         0.1947446156E-01      0.4005708309E-01
          0                 4           1             4    7     1      -0.1391223716E-04       4    7    1        -0.7965067509E-03      0.1638310768E-02

    ------------------------------------------------
       NWT REQUIRED            4 OUTER ITERATIONS 
       AND A TOTAL OF          7 INNER ITERATIONS.
    ------------------------------------------------

 NO OUTPUT CONTROL FOR STRESS PERIOD   11   TIME STEP   25
 
 SOLVING FOR HEAD 
                                                   Max.-Head-Change                         Max.-Flux-Residual
  Residual-Control   Outer-Iter.   Inner-Iter.     Column Row Layer    Maximum-Head-Change  Column Row Layer    Maximum-Flux-Residual          L2-NORM 
          0                 1           2             4    7     1       0.5203133510E-01       4    7    1         0.2742506992E+01      0.5636940481E+01
          0                 2           2             4    7     1      -0.5061282558E-02       4    7    1        -0.2742542710E+00      0.5636918848E+00
          0                 3           2             4    7     1       0.3446540656E-03       4    7    1         0.1919777346E-01      0.3945813740E-01
          0                 4           1             4    7     1      -0.1371411028E-04       4    7    1        -0.7851901887E-03      0.1613824395E-02

    ------------------------------------------------
       NWT REQUIRED            4 OUTER ITERATIONS 
       AND A TOTAL OF          7 INNER ITERATIONS.
    ------------------------------------------------

 NO OUTPUT CONTROL FOR STRESS PERIOD   11   TIME STEP   26
 
 SOLVING FOR HEAD 
                                                   Max.-Head-Change                         Max.-Flux-Residual
  Residual-Control   Outer-Iter.   Inner-Iter.     Column Row Layer    Maximum-Head-Change  Column Row Layer    Maximum-Flux-Residual          L2-NORM 
          0                 1           2             4    7     1       0.5128892735E-01       4    7    1         0.2703452617E+01      0.5553413137E+01
          0                 2           2             4    7     1      -0.4989065473E-02       4    7    1        -0.2703487613E+00      0.5553399097E+00
          0                 3           2             4    7     1       0.3397363604E-03       4    7    1         0.1892438836E-01      0.3887350698E-01
          0                 4           1             4    7     1      -0.1351842985E-04       4    7    1        -0.7740087185E-03      0.1589901051E-02

    ------------------------------------------------
       NWT REQUIRED            4 OUTER ITERATIONS 
       AND A TOTAL OF          7 INNER ITERATIONS.
    ------------------------------------------------

 NO OUTPUT CONTROL FOR STRESS PERIOD   11   TIME STEP   27
 
 SOLVING FOR HEAD 
                                                   Max.-Head-Change                         Max.-Flux-Residual
  Residual-Control   Outer-Iter.   Inner-Iter.     Column Row Layer    Maximum-Head-Change  Column Row Layer    Maximum-Flux-Residual          L2-NORM 
          0                 1           2             4    7     1       0.5055595419E-01       4    7    1         0.2664879535E+01      0.5471907412E+01
          0                 2           2             4    7     1      -0.4917766110E-02       4    7    1        -0.2664913805E+00      0.5471895093E+00
          0                 3           2             4    7     1       0.3348811485E-03       4    7    1         0.1865437227E-01      0.3830298665E-01
          0                 4           1             4    7     1      -0.1332523653E-04       4    7    1        -0.7629650434E-03      0.1566576993E-02

    ------------------------------------------------
       NWT REQUIRED            4 OUTER ITERATIONS 
       AND A TOTAL OF          7 INNER ITERATIONS.
    ------------------------------------------------

 NO OUTPUT CONTROL FOR STRESS PERIOD   11   TIME STEP   28
 
 SOLVING FOR HEAD 
                                                   Max.-Head-Change                         Max.-Flux-Residual
  Residual-Control   Outer-Iter.   Inner-Iter.     Column Row Layer    Maximum-Head-Change  Column Row Layer    Maximum-Flux-Residual          L2-NORM 
          0                 1           2             4    7     1       0.4983253962E-01       4    7    1         0.2626795604E+01      0.5392339642E+01
          0                 2           2             4    7     1      -0.4847396533E-02       4    7    1        -0.2626829146E+00      0.5392329019E+00
          0                 3           2             4    7     1       0.3300892515E-03       4    7    1         0.1838778023E-01      0.3774604385E-01
          0                 4           1             4    7     1      -0.1313456254E-04       4    7    1        -0.7520614060E-03      0.1543792510E-02

    ------------------------------------------------
       NWT REQUIRED            4 OUTER ITERATIONS 
       AND A TOTAL OF          7 INNER ITERATIONS.
    ------------------------------------------------

 NO OUTPUT CONTROL FOR STRESS PERIOD   11   TIME STEP   29
 
 SOLVING FOR HEAD 
                                                   Max.-Head-Change                         Max.-Flux-Residual
  Residual-Control   Outer-Iter.   Inner-Iter.     Column Row Layer    Maximum-Head-Change  Column Row Layer    Maximum-Flux-Residual          L2-NORM 
          0                 1           2             4    7     1       0.4911878395E-01       4    7    1         0.2589207253E+01      0.5314651211E+01
          0                 2           2             4    7     1      -0.4777966504E-02       4    7    1        -0.2589240067E+00      0.5314642064E+00
          0                 3           2             4    7     1       0.3253613347E-03       4    7    1         0.1812465726E-01      0.3720226495E-01
          0                 4           1             4    7     1      -0.1294643426E-04       4    7    1        -0.7412996702E-03      0.1521557419E-02

    ------------------------------------------------
       NWT REQUIRED            4 OUTER ITERATIONS 
       AND A TOTAL OF          7 INNER ITERATIONS.
    ------------------------------------------------

 NO OUTPUT CONTROL FOR STRESS PERIOD   11   TIME STEP   30



 STREAM LISTING     PERIOD     11   STEP       30

 LAYER ROW COL. STREAM  RCH.  FLOW INTO     FLOW TO   FLOW OUT OF   OVRLND.     DIRECT     STREAM       STREAM     STREAM     STREAM   STREAMBED  STREAMBED
                SEG.NO.  NO.  STRM. RCH.    AQUIFER    STRM. RCH.    RUNOFF     PRECIP       ET          HEAD       DEPTH      WIDTH   CONDCTNC.   GRADIENT

   1    1    1     1     1    2.6250E+01  2.5084E-01   2.5999E+01  0.000E+00  0.000E+00  0.000E+00  1.09424E+03  1.197E+00  1.328E+01  5.977E-02  1.399E+00
   1    2    2     1     2    2.5999E+01  3.8795E-01   2.5611E+01  0.000E+00  0.000E+00  0.000E+00  1.08925E+03  1.192E+00  1.322E+01  9.255E-02  1.397E+00
   1    3    3     1     3    2.5611E+01  3.3035E-01   2.5281E+01  0.000E+00  0.000E+00  0.000E+00  1.08361E+03  1.187E+00  1.315E+01  7.890E-02  1.396E+00
   1    3    4     1     4    2.5281E+01  3.0378E-01   2.4977E+01  0.000E+00  0.000E+00  0.000E+00  1.07859E+03  1.182E+00  1.309E+01  7.264E-02  1.394E+00
   1    4    5     2     1    2.2977E+01  3.2316E-01   2.2654E+01  0.000E+00  0.000E+00  0.000E+00  1.07308E+03  1.143E+00  1.200E+01  7.800E-02  1.381E+00
   1    5    6     2     2    2.2654E+01  2.4807E-01   2.2406E+01  0.000E+00  0.000E+00  0.000E+00  1.06764E+03  1.134E+00  1.200E+01  6.000E-02  1.378E+00
   1    6    6     2     3    2.2406E+01  2.4762E-01   2.2158E+01  0.000E+00  0.000E+00  0.000E+00  1.06292E+03  1.127E+00  1.200E+01  6.000E-02  1.376E+00
   1    7    6     2     4    2.2158E+01  2.4717E-01   2.1911E+01  0.000E+00  0.000E+00  0.000E+00  1.05819E+03  1.119E+00  1.200E+01  6.000E-02  1.373E+00
   1    8    6     2     5    2.1911E+01  2.4671E-01   2.1664E+01  0.000E+00  0.000E+00  0.000E+00  1.05347E+03  1.112E+00  1.200E+01  6.000E-02  1.371E+00
   1    3    5     3     1    2.0000E+00  2.8252E-01   1.7175E+00  0.000E+00  0.000E+00  0.000E+00  1.07555E+03  1.909E+00  9.636E+00  7.227E-02  1.955E+00
   1    3    6     3     2    1.7175E+00  2.4905E-01   1.4684E+00  0.000E+00  0.000E+00  0.000E+00  1.07264E+03  1.727E+00  8.909E+00  6.682E-02  1.864E+00
   1    3    7     3     3    1.4684E+00  1.9718E-01   1.2712E+00  0.000E+00  0.000E+00  0.000E+00  1.06987E+03  1.555E+00  8.218E+00  5.547E-02  1.777E+00
   1    4    8     3     4    1.2712E+00  2.2567E-01   1.0456E+00  0.000E+00  0.000E+00  0.000E+00  1.06682E+03  1.364E+00  7.455E+00  6.709E-02  1.682E+00
   1    5    8     3     5    1.0456E+00  1.5790E-01   8.8768E-01  0.000E+00  0.000E+00  0.000E+00  1.06362E+03  1.164E+00  6.655E+00  4.991E-02  1.582E+00
   1    6    8     3     6    8.8768E-01  5.5980E-02   8.3170E-01  0.000E+00  0.000E+00  0.000E+00  1.06158E+03  1.036E+00  6.145E+00  1.844E-02  1.518E+00
   1    5   10     4     1    1.0000E+01  9.0919E-02   9.9091E+00  0.000E+00  0.000E+00  0.000E+00  1.07836E+03  6.368E-01  1.000E+01  2.500E-02  1.212E+00
   1    5    9     4     2    9.9091E+00  1.8158E-01   9.7275E+00  0.000E+00  0.000E+00  0.000E+00  1.07154E+03  6.315E-01  1.000E+01  5.000E-02  1.211E+00
   1    6    8     4     3    9.7275E+00  1.2689E-01   9.6006E+00  0.000E+00  0.000E+00  0.000E+00  1.06381E+03  6.256E-01  1.000E+01  3.500E-02  1.209E+00
   1    6    8     5     1    1.0432E+01  2.2686E-01   1.0205E+01  0.000E+00  0.000E+00  0.000E+00  1.05868E+03  6.790E-01  1.542E+01  6.166E-02  1.226E+00
   1    7    7     5     2    1.0205E+01  2.7894E-01   9.9265E+00  0.000E+00  0.000E+00  0.000E+00  1.05417E+03  6.732E-01  1.519E+01  7.594E-02  1.224E+00
   1    8    7     5     3    9.9265E+00  1.9221E-01   9.7343E+00  0.000E+00  0.000E+00  0.000E+00  1.04992E+03  6.676E-01  1.497E+01  5.241E-02  1.223E+00
   1    8    6     5     4    9.7343E+00  1.3577E-01   9.5985E+00  0.000E+00  0.000E+00  0.000E+00  1.04691E+03  6.637E-01  1.482E+01  3.706E-02  1.221E+00
   1    9    6     6     1    3.1263E+01  2.6357E-01   3.0999E+01  0.000E+00  0.000E+00  0.000E+00  1.04412E+03  1.393E+00  1.200E+01  6.000E-02  1.464E+00
   1   10    7     6     2    3.0999E+01  2.6314E-01   3.0736E+01  0.000E+00  0.000E+00  0.000E+00  1.03957E+03  1.386E+00  1.200E+01  6.000E-02  1.462E+00
   1   11    7     6     3    3.0736E+01  2.6272E-01   3.0473E+01  0.000E+00  0.000E+00  0.000E+00  1.03502E+03  1.379E+00  1.200E+01  6.000E-02  1.460E+00
   1   12    7     6     4    3.0473E+01  2.6229E-01   3.0211E+01  0.000E+00  0.000E+00  0.000E+00  1.03046E+03  1.372E+00  1.200E+01  6.000E-02  1.457E+00
   1   13    7     6     5    3.0211E+01  2.5606E-03   3.0208E+01  0.000E+00  0.000E+00  0.000E+00  1.02728E+03  1.368E+00  1.200E+01  2.400E-02  3.556E-02
   1   14    9     7     1    1.5000E+02  1.3348E+00   1.4867E+02  0.000E+00  0.000E+00  0.000E+00  1.03987E+03  2.288E+00  5.529E+01  5.593E-01  7.955E-01
   1   13    8     7     2    1.4867E+02  1.8105E+00   1.4685E+02  0.000E+00  0.000E+00  0.000E+00  1.03478E+03  2.279E+00  5.526E+01  6.148E-01  9.817E-01
   1   13    7     7     3    1.4685E+02  1.4072E+00   1.4545E+02  0.000E+00  0.000E+00  0.000E+00  1.02969E+03  2.271E+00  5.522E+01  5.585E-01  8.399E-01
   1   13    6     8     1    1.7566E+02  8.7983E-01   1.7478E+02  0.000E+00  0.000E+00  0.000E+00  1.02486E+03  2.986E+00  4.329E+01  4.412E-01  6.647E-01
   1   13    5     8     2    1.7478E+02  1.3058E-01   1.7465E+02  0.000E+00  0.000E+00  0.000E+00  1.01861E+03  2.983E+00  4.325E+01  4.407E-01  9.876E-02
   1   13    4     8     3    1.7465E+02 -2.5938E+00   1.7724E+02  0.000E+00  0.000E+00  0.000E+00  1.01237E+03  2.990E+00  4.336E+01  4.419E+00 -1.957E-01
   1   13    3     8     4    1.7724E+02 -3.7406E+00   1.8098E+02  0.000E+00  0.000E+00  0.000E+00  1.00614E+03  3.011E+00  4.365E+01  4.448E+00 -2.803E-01
   1   13    2     8     5    1.8098E+02 -2.6112E+00   1.8359E+02  0.000E+00  0.000E+00  0.000E+00  9.99905E+02  3.030E+00  4.394E+01  4.478E+00 -1.944E-01
   1   13    1     8     6    1.8359E+02 -2.0120E+00   1.8560E+02  0.000E+00  0.000E+00  0.000E+00  9.94920E+02  3.045E+00  4.415E+01  2.699E+00 -2.484E-01
   1    8    6     9     1    0.0000E+00  0.0000E+00   0.0000E+00  0.000E+00  0.000E+00  0.000E+00  1.07875E+03  0.000E+00  4.000E+00  0.000E+00  1.000E+00
   1    8    5     9     2    0.0000E+00  0.0000E+00   0.0000E+00  0.000E+00  0.000E+00  0.000E+00  1.07825E+03  0.000E+00  4.000E+00  0.000E+00  1.000E+00





UNSATURATED ZONE PACKAGE VOLUMETRIC BUDGET FOR  TIME STEP    30 STRESS PERIOD   11
  ------------------------------------------------------------------------------



     CUMULATIVE VOLUMES      L**3       RATES FOR THIS TIME STEP      L**3/T
     ------------------                 ------------------------

           IN:                                      IN:
           ---                                      ---
        INFILTRATION =   426252106.1166          INFILTRATION =           0.8475

          OUT:                                     OUT:
          ----                                     ----
              UZF ET =   426094522.7527                UZF ET =           0.8475
        UZF RECHARGE =       73224.0000          UZF RECHARGE =       0.0000E+00

            IN - OUT =       84359.3638              IN - OUT =       0.0000E+00

          STORAGE:                                 STORAGE:
          --------                                 --------
      STORAGE CHANGE =       84359.1881        STORAGE CHANGE =       1.3487E-16

 PERCENT DISCREPANCY IS DIFFERENCE BETWEEN IN-OUT MINUS CHANGE IN STORAGE
 DIVIDED BY THE AVERAGE OF IN AND OUT TIMES 100

 PERCENT DISCREPANCY =           0.00     PERCENT DISCREPANCY =           0.00






1
  VOLUMETRIC BUDGET FOR AGRICULTURAL FIELDS AT  END OF TIME STEP   30, STRESS PERIOD  11
  ------------------------------------------------------------------------------

     CUMULATIVE VOLUMES      L**3       RATES FOR THIS TIME STEP      L**3/T
     ------------------                 ------------------------

           IN:                                      IN:
           ---                                      ---
               AG WELLS  =   403889344.0000                 AG WELLS  =           0.0000
      DIVERSION SEGMENTS =           0.0000        DIVERSION SEGMENTS =           0.0000
       IRRIGATION PONDS  =           0.0000         IRRIGATION PONDS  =           0.0000
           GW IRRIGATION =           0.0000             GW IRRIGATION =           0.0000
           SW IRRIGATION =           0.0000             SW IRRIGATION =           0.0000
        SYSTEM LOSSES GW =           0.0000          SYSTEM LOSSES GW =           0.0000
        SYSTEM LOSSES SW =           0.0000          SYSTEM LOSSES SW =           0.0000

                TOTAL IN =   403889344.0000                  TOTAL IN =           0.0000

          OUT:                                     OUT:
          ----                                     ----
               AG WELLS  =           0.0000                 AG WELLS  =           0.0000
      DIVERSION SEGMENTS =           0.0000        DIVERSION SEGMENTS =           0.0000
       IRRIGATION PONDS  =           0.0000         IRRIGATION PONDS  =           0.0000
           GW IRRIGATION =   403889344.0000             GW IRRIGATION =           0.0000
           SW IRRIGATION =           0.0000             SW IRRIGATION =           0.0000
        SYSTEM LOSSES GW =           0.0000          SYSTEM LOSSES GW =           0.0000
        SYSTEM LOSSES SW =           0.0000          SYSTEM LOSSES SW =           0.0000

               TOTAL OUT =   403889344.0000                 TOTAL OUT =           0.0000

                IN - OUT =           0.0000                  IN - OUT =           0.0000

     PERCENT DISCREPANCY =           0.00         PERCENT DISCREPANCY =           0.00



1
  VOLUMETRIC BUDGET FOR ENTIRE MODEL AT END OF TIME STEP   30, STRESS PERIOD  11
  ------------------------------------------------------------------------------

     CUMULATIVE VOLUMES      L**3       RATES FOR THIS TIME STEP      L**3/T
     ------------------                 ------------------------

           IN:                                      IN:
           ---                                      ---
             STORAGE     =   480746624.0000               STORAGE     =          12.9081
       CONSTANT HEAD     =           0.0000         CONSTANT HEAD     =           0.0000
     HEAD DEP BOUNDS     =     7539244.0000       HEAD DEP BOUNDS     =           0.2857
      STREAM LEAKAGE     =   323240608.0000        STREAM LEAKAGE     =          11.6044
        UZF RECHARGE     =       73223.9531          UZF RECHARGE     =           0.0000
               GW ET     =           0.0000                 GW ET     =           0.0000
     SURFACE LEAKAGE     =           0.0000       SURFACE LEAKAGE     =           0.0000
           AG WELLS      =           0.0000             AG WELLS      =           0.0000

                TOTAL IN =   811599680.0000                  TOTAL IN =          24.7982

          OUT:                                     OUT:
          ----                                     ----
             STORAGE     =   116266128.0000               STORAGE     =          13.5493
       CONSTANT HEAD     =           0.0000         CONSTANT HEAD     =           0.0000
     HEAD DEP BOUNDS     =     7734685.5000       HEAD DEP BOUNDS     =           0.2913
      STREAM LEAKAGE     =   277045472.0000        STREAM LEAKAGE     =          10.9576
        UZF RECHARGE     =           0.0000          UZF RECHARGE     =           0.0000
               GW ET     =     6666090.0000                 GW ET     =           0.0000
     SURFACE LEAKAGE     =           0.0000       SURFACE LEAKAGE     =           0.0000
           AG WELLS      =   403889344.0000             AG WELLS      =           0.0000

               TOTAL OUT =   811601664.0000                 TOTAL OUT =          24.7982

                IN - OUT =       -1984.0000                  IN - OUT =       7.6294E-06

     PERCENT DISCREPANCY =          -0.00         PERCENT DISCREPANCY =           0.00






         TIME SUMMARY AT END OF TIME STEP   30 IN STRESS PERIOD   11
                    SECONDS     MINUTES      HOURS       DAYS        YEARS
                    -----------------------------------------------------------
   TIME STEP LENGTH  87667.      1461.1      24.352      1.0147     2.77799E-03
 STRESS PERIOD TIME 2.63000E+06  43833.      730.56      30.440     8.33397E-02
         TOTAL TIME 2.63864E+07 4.39773E+05  7329.5      305.40     0.83613    
1
1
                            STRESS PERIOD NO.   12, LENGTH =   2630000.    
                            -----------------------------------------------

                              NUMBER OF TIME STEPS =    30

                               MULTIPLIER FOR DELT =     1.000

                            INITIAL TIME STEP SIZE =   87666.66    

 REUSING NON-PARAMETER GHB CELLS FROM LAST STRESS PERIOD

      2 GHB CELLS

 REUSING STREAM SEGMENT DATA FROM LAST STRESS PERIOD



            AREAL INFILTRATION RATE
 READING ON UNIT   19 WITH FORMAT: (FREE)              

            1           2           3           4           5           6           7           8           9          10
 ........................................................................................................................
   1   1.0000E-10  2.0000E-10   0.000       0.000       0.000       0.000       0.000       0.000       0.000       0.000    
   2   2.0000E-10  1.0000E-10  2.0000E-10   0.000       0.000      8.0000E-10  8.0000E-10  5.0000E-10   0.000       0.000    
   3    0.000      5.0000E-10  1.0000E-10  1.0000E-10  8.0000E-10  8.0000E-10  5.0000E-10  5.0000E-10   0.000       0.000    
   4   8.0000E-10  5.0000E-10  1.0000E-10  1.0000E-10  1.0000E-10  1.0000E-10  1.0000E-10  1.0000E-10  2.0000E-10   0.000    
   5   8.0000E-10  5.0000E-10  1.0000E-10  1.0000E-10  1.0000E-10  1.0000E-10  1.0000E-10  1.0000E-10  1.0000E-10  1.0000E-10
   6   8.0000E-10  5.0000E-10  5.0000E-10  2.0000E-10  2.0000E-10  1.0000E-10  1.0000E-10  1.0000E-10  1.0000E-10  5.0000E-10
   7   8.0000E-10  5.0000E-10  5.0000E-10  2.0000E-10  2.0000E-10  1.0000E-10  1.0000E-10  2.0000E-10  2.0000E-10   0.000    
   8    0.000      5.0000E-10  5.0000E-10  2.0000E-10  2.0000E-10  1.0000E-10  1.0000E-10  2.0000E-10  5.0000E-10   0.000    
   9    0.000      5.0000E-10  5.0000E-10  2.0000E-10  2.0000E-10  1.0000E-10  1.0000E-10  2.0000E-10  5.0000E-10   0.000    
  10    0.000      5.0000E-10  5.0000E-10  2.0000E-10  2.0000E-10  1.0000E-10  1.0000E-10  2.0000E-10  5.0000E-10  8.0000E-10
  11    0.000      1.0000E-10  1.0000E-10  1.0000E-10  1.0000E-10  1.0000E-10  1.0000E-10  2.0000E-10  5.0000E-10   0.000    
  12   1.0000E-10  1.0000E-10  1.0000E-10  1.0000E-10  1.0000E-10  1.0000E-10  1.0000E-10  1.0000E-10  2.0000E-10   0.000    
  13   1.0000E-10  1.0000E-10  2.0000E-10  2.0000E-10  2.0000E-10  2.0000E-10  2.0000E-10  1.0000E-10  1.0000E-10   0.000    
  14    0.000      2.0000E-10  5.0000E-10  5.0000E-10  5.0000E-10  5.0000E-10  5.0000E-10  2.0000E-10  1.0000E-10   0.000    
  15    0.000       0.000      8.0000E-10  8.0000E-10  8.0000E-10  8.0000E-10   0.000       0.000       0.000       0.000    

                  ET RATE =  5.000000E-10

 USING ET EXTINCTION DEPTH FROM PREVIOUS STRESS PERIOD. CURRENT PERIOD IS:      12

 USING EXTINCTION WATER CONTENT FROM PREVIOUS STRESS PERIOD. CURRENT PERIOD IS:      12

 USING AIR ENTRY PRESSURE FROM PREVIOUS STRESS PERIOD. CURRENT PERIOD IS:      12

 USING ROOT PRESSURE HEAD FROM PREVIOUS STRESS PERIOD. CURRENT PERIOD IS:      12

 USING ROOT ACTIVITY FROM PREVIOUS STRESS PERIOD. CURRENT PERIOD IS:      12

 PROCESSING AG STRESS PERIOD DATA

 READING AG STRESS PERIOD DATA

 READING IRRIGATION SEGMENT

 READING IRRIGATION WELL

 READING SUPPLEMENTAL WELL

 NO IRRPOND OR REUSING IRRPOND DATA FROM LAST STRESS PERIOD

 END PROCESSING AG STRESS PERIOD DATA OPTIONS
 
 SOLVING FOR HEAD 
                                                   Max.-Head-Change                         Max.-Flux-Residual
  Residual-Control   Outer-Iter.   Inner-Iter.     Column Row Layer    Maximum-Head-Change  Column Row Layer    Maximum-Flux-Residual          L2-NORM 
          0                 1           2             4    7     1       0.4841485072E-01       4    7    1         0.2552126999E+01      0.5251635349E+01
          0                 2           2             4    7     1      -0.4709491934E-02       4    7    1        -0.2552159088E+00      0.5251762929E+00
          0                 3           2             4    7     1       0.3206984806E-03       4    7    1         0.1786509099E-01      0.3676194058E-01
          0                 4           1             4    7     1      -0.1276089473E-04       4    7    1        -0.7306833743E-03      0.1503797178E-02

    ------------------------------------------------
       NWT REQUIRED            4 OUTER ITERATIONS 
       AND A TOTAL OF          7 INNER ITERATIONS.
    ------------------------------------------------

 NO OUTPUT CONTROL FOR STRESS PERIOD   12   TIME STEP    1
 
 SOLVING FOR HEAD 
                                                   Max.-Head-Change                         Max.-Flux-Residual
  Residual-Control   Outer-Iter.   Inner-Iter.     Column Row Layer    Maximum-Head-Change  Column Row Layer    Maximum-Flux-Residual          L2-NORM 
          0                 1           2             4    7     1       0.4772065282E-01       4    7    1         0.2515548692E+01      0.5180259351E+01
          0                 2           2             4    7     1      -0.4641964351E-02       4    7    1        -0.2515580060E+00      0.5179813390E+00
          0                 3           2             4    7     1       0.3161001126E-03       4    7    1         0.1760903835E-01      0.3625454065E-01
          0                 4           1             4    7     1      -0.1257792140E-04       4    7    1        -0.7202108063E-03      0.1482552694E-02

    ------------------------------------------------
       NWT REQUIRED            4 OUTER ITERATIONS 
       AND A TOTAL OF          7 INNER ITERATIONS.
    ------------------------------------------------

 NO OUTPUT CONTROL FOR STRESS PERIOD   12   TIME STEP    2
 
 SOLVING FOR HEAD 
                                                   Max.-Head-Change                         Max.-Flux-Residual
  Residual-Control   Outer-Iter.   Inner-Iter.     Column Row Layer    Maximum-Head-Change  Column Row Layer    Maximum-Flux-Residual          L2-NORM 
          0                 1           2             4    7     1       0.4703636309E-01       4    7    1         0.2479482447E+01      0.5106779426E+01
          0                 2           2             4    7     1      -0.4575400572E-02       4    7    1        -0.2479513099E+00      0.5106385059E+00
          0                 3           2             4    7     1       0.3115673763E-03       4    7    1         0.1735657018E-01      0.3574095490E-01
          0                 4           1             4    7     1      -0.1239755939E-04       4    7    1        -0.7098848519E-03      0.1461631476E-02

    ------------------------------------------------
       NWT REQUIRED            4 OUTER ITERATIONS 
       AND A TOTAL OF          7 INNER ITERATIONS.
    ------------------------------------------------

 NO OUTPUT CONTROL FOR STRESS PERIOD   12   TIME STEP    3
 
 SOLVING FOR HEAD 
                                                   Max.-Head-Change                         Max.-Flux-Residual
  Residual-Control   Outer-Iter.   Inner-Iter.     Column Row Layer    Maximum-Head-Change  Column Row Layer    Maximum-Flux-Residual          L2-NORM 
          0                 1           2             4    7     1       0.4636186473E-01       4    7    1         0.2443922592E+01      0.5035055138E+01
          0                 2           2             4    7     1      -0.4509789234E-02       4    7    1        -0.2443952534E+00      0.5034706464E+00
          0                 3           2             4    7     1       0.3070994976E-03       4    7    1         0.1710764681E-01      0.3523964770E-01
          0                 4           1             4    7     1      -0.1221977820E-04       4    7    1        -0.6997038522E-03      0.1441109498E-02

    ------------------------------------------------
       NWT REQUIRED            4 OUTER ITERATIONS 
       AND A TOTAL OF          7 INNER ITERATIONS.
    ------------------------------------------------

 NO OUTPUT CONTROL FOR STRESS PERIOD   12   TIME STEP    4
 
 SOLVING FOR HEAD 
                                                   Max.-Head-Change                         Max.-Flux-Residual
  Residual-Control   Outer-Iter.   Inner-Iter.     Column Row Layer    Maximum-Head-Change  Column Row Layer    Maximum-Flux-Residual          L2-NORM 
          0                 1           2             4    7     1       0.4569743221E-01       4    7    1         0.2408885026E+01      0.4965016728E+01
          0                 2           2             4    7     1      -0.4445157038E-02       4    7    1        -0.2408914265E+00      0.4964707591E+00
          0                 3           2             4    7     1       0.3026982948E-03       4    7    1         0.1686237948E-01      0.3475006231E-01
          0                 4           1             4    7     1      -0.1204465070E-04       4    7    1        -0.6896724124E-03      0.1421121087E-02

    ------------------------------------------------
       NWT REQUIRED            4 OUTER ITERATIONS 
       AND A TOTAL OF          7 INNER ITERATIONS.
    ------------------------------------------------

 NO OUTPUT CONTROL FOR STRESS PERIOD   12   TIME STEP    5
 
 SOLVING FOR HEAD 
                                                   Max.-Head-Change                         Max.-Flux-Residual
  Residual-Control   Outer-Iter.   Inner-Iter.     Column Row Layer    Maximum-Head-Change  Column Row Layer    Maximum-Flux-Residual          L2-NORM 
          0                 1           2             4    7     1       0.4504277727E-01       4    7    1         0.2374354708E+01      0.4896593678E+01
          0                 2           2             4    7     1      -0.4381475946E-02       4    7    1        -0.2374383252E+00      0.4896319178E+00
          0                 3           2             4    7     1       0.2983618584E-03       4    7    1         0.1662066293E-01      0.3427157012E-01
          0                 4           1             4    7     1      -0.1187209930E-04       4    7    1        -0.6797861831E-03      0.1401583236E-02

    ------------------------------------------------
       NWT REQUIRED            4 OUTER ITERATIONS 
       AND A TOTAL OF          7 INNER ITERATIONS.
    ------------------------------------------------

 NO OUTPUT CONTROL FOR STRESS PERIOD   12   TIME STEP    6
 
 SOLVING FOR HEAD 
                                                   Max.-Head-Change                         Max.-Flux-Residual
  Residual-Control   Outer-Iter.   Inner-Iter.     Column Row Layer    Maximum-Head-Change  Column Row Layer    Maximum-Flux-Residual          L2-NORM 
          0                 1           2             4    7     1       0.4439814622E-01       4    7    1         0.2340345966E+01      0.4829721439E+01
          0                 2           2             4    7     1      -0.4318769919E-02       4    7    1        -0.2340373825E+00      0.4829477174E+00
          0                 3           2             4    7     1       0.2940918204E-03       4    7    1         0.1638259750E-01      0.3380399229E-01
          0                 4           1             4    7     1      -0.1170219053E-04       4    7    1        -0.6700492995E-03      0.1382329140E-02

    ------------------------------------------------
       NWT REQUIRED            4 OUTER ITERATIONS 
       AND A TOTAL OF          7 INNER ITERATIONS.
    ------------------------------------------------

 NO OUTPUT CONTROL FOR STRESS PERIOD   12   TIME STEP    7
 
 SOLVING FOR HEAD 
                                                   Max.-Head-Change                         Max.-Flux-Residual
  Residual-Control   Outer-Iter.   Inner-Iter.     Column Row Layer    Maximum-Head-Change  Column Row Layer    Maximum-Flux-Residual          L2-NORM 
          0                 1           2             4    7     1       0.4376349057E-01       4    7    1         0.2306856936E+01      0.4764349810E+01
          0                 2           2             4    7     1      -0.4257034240E-02       4    7    1        -0.2306884120E+00      0.4764132501E+00
          0                 3           2             4    7     1       0.2898878587E-03       4    7    1         0.1614817008E-01      0.3334686046E-01
          0                 4           1             4    7     1      -0.1153491059E-04       4    7    1        -0.6604611860E-03      0.1363747022E-02

    ------------------------------------------------
       NWT REQUIRED            4 OUTER ITERATIONS 
       AND A TOTAL OF          7 INNER ITERATIONS.
    ------------------------------------------------

 NO OUTPUT CONTROL FOR STRESS PERIOD   12   TIME STEP    8
 
 SOLVING FOR HEAD 
                                                   Max.-Head-Change                         Max.-Flux-Residual
  Residual-Control   Outer-Iter.   Inner-Iter.     Column Row Layer    Maximum-Head-Change  Column Row Layer    Maximum-Flux-Residual          L2-NORM 
          0                 1           2             4    7     1       0.4313848684E-01       4    7    1         0.2273870460E+01      0.4700420616E+01
          0                 2           2             4    7     1      -0.4196237445E-02       4    7    1        -0.2273896978E+00      0.4700222865E+00
          0                 3           2             4    7     1       0.2857478324E-03       4    7    1         0.1591726064E-01      0.3289967579E-01
          0                 4           1             4    7     1      -0.1137017542E-04       4    7    1        -0.6510169837E-03      0.1345505198E-02

    ------------------------------------------------
       NWT REQUIRED            4 OUTER ITERATIONS 
       AND A TOTAL OF          7 INNER ITERATIONS.
    ------------------------------------------------

 NO OUTPUT CONTROL FOR STRESS PERIOD   12   TIME STEP    9
 
 SOLVING FOR HEAD 
                                                   Max.-Head-Change                         Max.-Flux-Residual
  Residual-Control   Outer-Iter.   Inner-Iter.     Column Row Layer    Maximum-Head-Change  Column Row Layer    Maximum-Flux-Residual          L2-NORM 
          0                 1           2             4    7     1       0.4252348011E-01       4    7    1         0.2241406374E+01      0.4637881743E+01
          0                 2           2             4    7     1      -0.4136413102E-02       4    7    1        -0.2241432238E+00      0.4637707987E+00
          0                 3           2             4    7     1       0.2816740255E-03       4    7    1         0.1569000796E-01      0.3246225617E-01
          0                 4           1             4    7     1      -0.1120807507E-04       4    7    1        -0.6417223346E-03      0.1327583129E-02

    ------------------------------------------------
       NWT REQUIRED            4 OUTER ITERATIONS 
       AND A TOTAL OF          7 INNER ITERATIONS.
    ------------------------------------------------

 NO OUTPUT CONTROL FOR STRESS PERIOD   12   TIME STEP   10
 
 SOLVING FOR HEAD 
                                                   Max.-Head-Change                         Max.-Flux-Residual
  Residual-Control   Outer-Iter.   Inner-Iter.     Column Row Layer    Maximum-Head-Change  Column Row Layer    Maximum-Flux-Residual          L2-NORM 
          0                 1           2             4    7     1       0.4191811992E-01       4    7    1         0.2209445962E+01      0.4576686114E+01
          0                 2           2             4    7     1      -0.4077527120E-02       4    7    1        -0.2209471183E+00      0.4576530933E+00
          0                 3           2             4    7     1       0.2776641174E-03       4    7    1         0.1546628108E-01      0.3203422473E-01
          0                 4           1             4    7     1      -0.1104851662E-04       4    7    1        -0.6325718755E-03      0.1310134255E-02

    ------------------------------------------------
       NWT REQUIRED            4 OUTER ITERATIONS 
       AND A TOTAL OF          7 INNER ITERATIONS.
    ------------------------------------------------

 NO OUTPUT CONTROL FOR STRESS PERIOD   12   TIME STEP   11
 
 SOLVING FOR HEAD 
                                                   Max.-Head-Change                         Max.-Flux-Residual
  Residual-Control   Outer-Iter.   Inner-Iter.     Column Row Layer    Maximum-Head-Change  Column Row Layer    Maximum-Flux-Residual          L2-NORM 
          0                 1           2             4    7     1       0.4132259380E-01       4    7    1         0.2178000343E+01      0.4516790048E+01
          0                 2           2             4    7     1      -0.4019597742E-02       4    7    1        -0.2178024932E+00      0.4516649950E+00
          0                 3           2             4    7     1       0.2737193512E-03       4    7    1         0.1524615785E-01      0.3161513129E-01
          0                 4           1             4    7     1      -0.1089155085E-04       4    7    1        -0.6235688377E-03      0.1293004644E-02

    ------------------------------------------------
       NWT REQUIRED            4 OUTER ITERATIONS 
       AND A TOTAL OF          7 INNER ITERATIONS.
    ------------------------------------------------

 NO OUTPUT CONTROL FOR STRESS PERIOD   12   TIME STEP   12
 
 SOLVING FOR HEAD 
                                                   Max.-Head-Change                         Max.-Flux-Residual
  Residual-Control   Outer-Iter.   Inner-Iter.     Column Row Layer    Maximum-Head-Change  Column Row Layer    Maximum-Flux-Residual          L2-NORM 
          0                 1           2             4    7     1       0.4073653490E-01       4    7    1         0.2147049947E+01      0.4458144768E+01
          0                 2           2             4    7     1      -0.3962589284E-02       4    7    1        -0.2147073918E+00      0.4458018475E+00
          0                 3           2             4    7     1       0.2698372949E-03       4    7    1         0.1502950122E-01      0.3120501607E-01
          0                 4           1             4    7     1      -0.1073707989E-04       4    7    1        -0.6147075571E-03      0.1276416158E-02

    ------------------------------------------------
       NWT REQUIRED            4 OUTER ITERATIONS 
       AND A TOTAL OF          7 INNER ITERATIONS.
    ------------------------------------------------

 NO OUTPUT CONTROL FOR STRESS PERIOD   12   TIME STEP   13
 
 SOLVING FOR HEAD 
                                                   Max.-Head-Change                         Max.-Flux-Residual
  Residual-Control   Outer-Iter.   Inner-Iter.     Column Row Layer    Maximum-Head-Change  Column Row Layer    Maximum-Flux-Residual          L2-NORM 
          0                 1           2             4    7     1       0.4016011770E-01       4    7    1         0.2116605050E+01      0.4400717381E+01
          0                 2           2             4    7     1      -0.3906518719E-02       4    7    1        -0.2116628414E+00      0.4400604002E+00
          0                 3           2             4    7     1       0.2660191065E-03       4    7    1         0.1481638321E-01      0.3080309767E-01
          0                 4           1             4    7     1      -0.1058515071E-04       4    7    1        -0.6059910231E-03      0.1259772800E-02

    ------------------------------------------------
       NWT REQUIRED            4 OUTER ITERATIONS 
       AND A TOTAL OF          7 INNER ITERATIONS.
    ------------------------------------------------

 NO OUTPUT CONTROL FOR STRESS PERIOD   12   TIME STEP   14
 
 SOLVING FOR HEAD 
                                                   Max.-Head-Change                         Max.-Flux-Residual
  Residual-Control   Outer-Iter.   Inner-Iter.     Column Row Layer    Maximum-Head-Change  Column Row Layer    Maximum-Flux-Residual          L2-NORM 
          0                 1           2             4    7     1       0.3959309980E-01       4    7    1         0.2086652727E+01      0.4344469735E+01
          0                 2           2             4    7     1      -0.3851362467E-02       4    7    1        -0.2086675497E+00      0.4344366775E+00
          0                 3           2             4    7     1       0.2622631785E-03       4    7    1         0.1460671325E-01      0.3040952543E-01
          0                 4           1             4    7     1      -0.1043569874E-04       4    7    1        -0.5974154938E-03      0.1243677198E-02

    ------------------------------------------------
       NWT REQUIRED            4 OUTER ITERATIONS 
       AND A TOTAL OF          7 INNER ITERATIONS.
    ------------------------------------------------

 NO OUTPUT CONTROL FOR STRESS PERIOD   12   TIME STEP   15
 
 SOLVING FOR HEAD 
                                                   Max.-Head-Change                         Max.-Flux-Residual
  Residual-Control   Outer-Iter.   Inner-Iter.     Column Row Layer    Maximum-Head-Change  Column Row Layer    Maximum-Flux-Residual          L2-NORM 
          0                 1           2             4    7     1       0.3903550189E-01       4    7    1         0.2057195059E+01      0.4289356586E+01
          0                 2           2             4    7     1      -0.3797122542E-02       4    7    1        -0.2057217247E+00      0.4289263280E+00
          0                 3           2             4    7     1       0.2585696489E-03       4    7    1         0.1440050595E-01      0.3002389833E-01
          0                 4           1             4    7     1      -0.1028872995E-04       4    7    1        -0.5889816071E-03      0.1227922689E-02

    ------------------------------------------------
       NWT REQUIRED            4 OUTER ITERATIONS 
       AND A TOTAL OF          7 INNER ITERATIONS.
    ------------------------------------------------

 NO OUTPUT CONTROL FOR STRESS PERIOD   12   TIME STEP   16
 
 SOLVING FOR HEAD 
                                                   Max.-Head-Change                         Max.-Flux-Residual
  Residual-Control   Outer-Iter.   Inner-Iter.     Column Row Layer    Maximum-Head-Change  Column Row Layer    Maximum-Flux-Residual          L2-NORM 
          0                 1           2             4    7     1       0.3848706936E-01       4    7    1         0.2028218468E+01      0.4235348850E+01
          0                 2           2             4    7     1      -0.3743774178E-02       4    7    1        -0.2028240087E+00      0.4235264035E+00
          0                 3           2             4    7     1       0.2549368314E-03       4    7    1         0.1419766630E-01      0.2964599709E-01
          0                 4           1             4    7     1      -0.1014417620E-04       4    7    1        -0.5806854474E-03      0.1212474972E-02

    ------------------------------------------------
       NWT REQUIRED            4 OUTER ITERATIONS 
       AND A TOTAL OF          7 INNER ITERATIONS.
    ------------------------------------------------

 NO OUTPUT CONTROL FOR STRESS PERIOD   12   TIME STEP   17
 
 SOLVING FOR HEAD 
                                                   Max.-Head-Change                         Max.-Flux-Residual
  Residual-Control   Outer-Iter.   Inner-Iter.     Column Row Layer    Maximum-Head-Change  Column Row Layer    Maximum-Flux-Residual          L2-NORM 
          0                 1           2             4    7     1       0.3794782104E-01       4    7    1         0.1999724406E+01      0.4182415976E+01
          0                 2           2             4    7     1      -0.3691319204E-02       4    7    1        -0.1999745468E+00      0.4182338653E+00
          0                 3           2             4    7     1       0.2513648498E-03       4    7    1         0.1399820439E-01      0.2927553964E-01
          0                 4           1             4    7     1      -0.1000204369E-04       4    7    1        -0.5725274350E-03      0.1197299886E-02

    ------------------------------------------------
       NWT REQUIRED            4 OUTER ITERATIONS 
       AND A TOTAL OF          7 INNER ITERATIONS.
    ------------------------------------------------

 NO OUTPUT CONTROL FOR STRESS PERIOD   12   TIME STEP   18
 
 SOLVING FOR HEAD 
                                                   Max.-Head-Change                         Max.-Flux-Residual
  Residual-Control   Outer-Iter.   Inner-Iter.     Column Row Layer    Maximum-Head-Change  Column Row Layer    Maximum-Flux-Residual          L2-NORM 
          0                 1           2             4    7     1       0.3741776586E-01       4    7    1         0.1971713850E+01      0.4130534477E+01
          0                 2           2             4    7     1      -0.3639758491E-02       4    7    1        -0.1971734369E+00      0.4130464037E+00
          0                 3           2             4    7     1       0.2478537642E-03       4    7    1         0.1380212712E-01      0.2891251411E-01
          0                 4           1             4    7     1      -0.9862334621E-05       4    7    1        -0.5645078757E-03      0.1182487495E-02

    ------------------------------------------------
       NWT REQUIRED            4 OUTER ITERATIONS 
       AND A TOTAL OF          7 INNER ITERATIONS.
    ------------------------------------------------

 NO OUTPUT CONTROL FOR STRESS PERIOD   12   TIME STEP   19
 
 SOLVING FOR HEAD 
                                                   Max.-Head-Change                         Max.-Flux-Residual
  Residual-Control   Outer-Iter.   Inner-Iter.     Column Row Layer    Maximum-Head-Change  Column Row Layer    Maximum-Flux-Residual          L2-NORM 
          0                 1           2             4    7     1       0.3689649188E-01       4    7    1         0.1944165282E+01      0.4079648363E+01
          0                 2           2             4    7     1      -0.3589051968E-02       4    7    1        -0.1944185270E+00      0.4079583782E+00
          0                 3           2             4    7     1       0.2444008463E-03       4    7    1         0.1360928386E-01      0.2855642309E-01
          0                 4           1             4    7     1      -0.9724939962E-05       4    7    1        -0.5566205916E-03      0.1167911550E-02

    ------------------------------------------------
       NWT REQUIRED            4 OUTER ITERATIONS 
       AND A TOTAL OF          7 INNER ITERATIONS.
    ------------------------------------------------

 NO OUTPUT CONTROL FOR STRESS PERIOD   12   TIME STEP   20
 
 SOLVING FOR HEAD 
                                                   Max.-Head-Change                         Max.-Flux-Residual
  Residual-Control   Outer-Iter.   Inner-Iter.     Column Row Layer    Maximum-Head-Change  Column Row Layer    Maximum-Flux-Residual          L2-NORM 
          0                 1           2             4    7     1       0.3638401230E-01       4    7    1         0.1917079326E+01      0.4029755390E+01
          0                 2           2             4    7     1      -0.3539200919E-02       4    7    1        -0.1917098795E+00      0.4029695719E+00
          0                 3           2             4    7     1       0.2410061815E-03       4    7    1         0.1341967894E-01      0.2820723525E-01
          0                 4           1             4    7     1      -0.9589862820E-05       4    7    1        -0.5488657084E-03      0.1153631451E-02

    ------------------------------------------------
       NWT REQUIRED            4 OUTER ITERATIONS 
       AND A TOTAL OF          7 INNER ITERATIONS.
    ------------------------------------------------

 NO OUTPUT CONTROL FOR STRESS PERIOD   12   TIME STEP   21
 
 SOLVING FOR HEAD 
                                                   Max.-Head-Change                         Max.-Flux-Residual
  Residual-Control   Outer-Iter.   Inner-Iter.     Column Row Layer    Maximum-Head-Change  Column Row Layer    Maximum-Flux-Residual          L2-NORM 
          0                 1           2             4    7     1       0.3588032793E-01       4    7    1         0.1890456668E+01      0.3980813176E+01
          0                 2           2             4    7     1      -0.3490205421E-02       4    7    1        -0.1890475631E+00      0.3980758688E+00
          0                 3           2             4    7     1       0.2376697773E-03       4    7    1         0.1323331721E-01      0.2786474272E-01
          0                 4           1             4    7     1      -0.9457104234E-05       4    7    1        -0.5412435114E-03      0.1139634768E-02

    ------------------------------------------------
       NWT REQUIRED            4 OUTER ITERATIONS 
       AND A TOTAL OF          7 INNER ITERATIONS.
    ------------------------------------------------

 NO OUTPUT CONTROL FOR STRESS PERIOD   12   TIME STEP   22
 
 SOLVING FOR HEAD 
                                                   Max.-Head-Change                         Max.-Flux-Residual
  Residual-Control   Outer-Iter.   Inner-Iter.     Column Row Layer    Maximum-Head-Change  Column Row Layer    Maximum-Flux-Residual          L2-NORM 
          0                 1           2             4    7     1       0.3538529730E-01       4    7    1         0.1864290022E+01      0.3932810567E+01
          0                 2           2             4    7     1      -0.3442047645E-02       4    7    1        -0.1864308492E+00      0.3931528485E+00
          0                 3           2             4    7     1       0.2343904184E-03       4    7    1         0.1305014761E-01      0.2752015836E-01
          0                 4           1             4    7     1      -0.9326615388E-05       4    7    1        -0.5337518669E-03      0.1125527207E-02

    ------------------------------------------------
       NWT REQUIRED            4 OUTER ITERATIONS 
       AND A TOTAL OF          7 INNER ITERATIONS.
    ------------------------------------------------

 NO OUTPUT CONTROL FOR STRESS PERIOD   12   TIME STEP   23
 
 SOLVING FOR HEAD 
                                                   Max.-Head-Change                         Max.-Flux-Residual
  Residual-Control   Outer-Iter.   Inner-Iter.     Column Row Layer    Maximum-Head-Change  Column Row Layer    Maximum-Flux-Residual          L2-NORM 
          0                 1           2             4    7     1       0.3489866053E-01       4    7    1         0.1838564940E+01      0.3885807148E+01
          0                 2           2             4    7     1      -0.3394714523E-02       4    7    1        -0.1838582928E+00      0.3885761540E+00
          0                 3           2             4    7     1       0.2311672149E-03       4    7    1         0.1287006903E-01      0.2719981761E-01
          0                 4           1             4    7     1      -0.9198360939E-05       4    7    1        -0.5263866301E-03      0.1112447884E-02

    ------------------------------------------------
       NWT REQUIRED            4 OUTER ITERATIONS 
       AND A TOTAL OF          7 INNER ITERATIONS.
    ------------------------------------------------

 NO OUTPUT CONTROL FOR STRESS PERIOD   12   TIME STEP   24
 
 SOLVING FOR HEAD 
                                                   Max.-Head-Change                         Max.-Flux-Residual
  Residual-Control   Outer-Iter.   Inner-Iter.     Column Row Layer    Maximum-Head-Change  Column Row Layer    Maximum-Flux-Residual          L2-NORM 
          0                 1           2             4    7     1       0.3442040733E-01       4    7    1         0.1813281957E+01      0.3839747914E+01
          0                 2           2             4    7     1      -0.3348192838E-02       4    7    1        -0.1813299475E+00      0.3839704954E+00
          0                 3           2             4    7     1       0.2279992671E-03       4    7    1         0.1269308522E-01      0.2687745047E-01
          0                 4           1             4    7     1      -0.9072305081E-05       4    7    1        -0.5191479736E-03      0.1099262989E-02

    ------------------------------------------------
       NWT REQUIRED            4 OUTER ITERATIONS 
       AND A TOTAL OF          7 INNER ITERATIONS.
    ------------------------------------------------

 NO OUTPUT CONTROL FOR STRESS PERIOD   12   TIME STEP   25
 
 SOLVING FOR HEAD 
                                                   Max.-Head-Change                         Max.-Flux-Residual
  Residual-Control   Outer-Iter.   Inner-Iter.     Column Row Layer    Maximum-Head-Change  Column Row Layer    Maximum-Flux-Residual          L2-NORM 
          0                 1           2             4    7     1       0.3395027208E-01       4    7    1         0.1788426529E+01      0.3794528441E+01
          0                 2           2             4    7     1      -0.3302460825E-02       4    7    1        -0.1788443588E+00      0.3794488610E+00
          0                 3           2             4    7     1       0.2248850933E-03       4    7    1         0.1251909437E-01      0.2656096113E-01
          0                 4           1             4    7     1      -0.8948389446E-05       4    7    1        -0.5120317496E-03      0.1086320353E-02

    ------------------------------------------------
       NWT REQUIRED            4 OUTER ITERATIONS 
       AND A TOTAL OF          7 INNER ITERATIONS.
    ------------------------------------------------

 NO OUTPUT CONTROL FOR STRESS PERIOD   12   TIME STEP   26
 
 SOLVING FOR HEAD 
                                                   Max.-Head-Change                         Max.-Flux-Residual
  Residual-Control   Outer-Iter.   Inner-Iter.     Column Row Layer    Maximum-Head-Change  Column Row Layer    Maximum-Flux-Residual          L2-NORM 
          0                 1           2             4    7     1       0.3348838613E-01       4    7    1         0.1764006662E+01      0.3750147086E+01
          0                 2           2             4    7     1      -0.3257531261E-02       4    7    1        -0.1764023275E+00      0.3750109947E+00
          0                 3           2             4    7     1       0.2218255629E-03       4    7    1         0.1234815252E-01      0.2625035394E-01
          0                 4           1             4    7     1      -0.8826647880E-05       4    7    1        -0.5050402201E-03      0.1073632289E-02

    ------------------------------------------------
       NWT REQUIRED            4 OUTER ITERATIONS 
       AND A TOTAL OF          7 INNER ITERATIONS.
    ------------------------------------------------

 NO OUTPUT CONTROL FOR STRESS PERIOD   12   TIME STEP   27
 
 SOLVING FOR HEAD 
                                                   Max.-Head-Change                         Max.-Flux-Residual
  Residual-Control   Outer-Iter.   Inner-Iter.     Column Row Layer    Maximum-Head-Change  Column Row Layer    Maximum-Flux-Residual          L2-NORM 
          0                 1           2             4    7     1       0.3303446661E-01       4    7    1         0.1740007172E+01      0.3706560397E+01
          0                 2           2             4    7     1      -0.3213376631E-02       4    7    1        -0.1740023350E+00      0.3706525450E+00
          0                 3           2             4    7     1       0.2188188026E-03       4    7    1         0.1218015340E-01      0.2594528448E-01
          0                 4           1             4    7     1      -0.8707005781E-05       4    7    1        -0.4981690308E-03      0.1061151252E-02

    ------------------------------------------------
       NWT REQUIRED            4 OUTER ITERATIONS 
       AND A TOTAL OF          7 INNER ITERATIONS.
    ------------------------------------------------

 NO OUTPUT CONTROL FOR STRESS PERIOD   12   TIME STEP   28
 
 SOLVING FOR HEAD 
                                                   Max.-Head-Change                         Max.-Flux-Residual
  Residual-Control   Outer-Iter.   Inner-Iter.     Column Row Layer    Maximum-Head-Change  Column Row Layer    Maximum-Flux-Residual          L2-NORM 
          0                 1           2             4    7     1       0.3258837580E-01       4    7    1         0.1716420723E+01      0.3663763056E+01
          0                 2           2             4    7     1      -0.3169983537E-02       4    7    1        -0.1716436478E+00      0.3663730266E+00
          0                 3           2             4    7     1       0.2158639002E-03       4    7    1         0.1201504565E-01      0.2564571564E-01
          0                 4           1             4    7     1      -0.8589427574E-05       4    7    1        -0.4914161111E-03      0.1048873810E-02

    ------------------------------------------------
       NWT REQUIRED            4 OUTER ITERATIONS 
       AND A TOTAL OF          7 INNER ITERATIONS.
    ------------------------------------------------

 NO OUTPUT CONTROL FOR STRESS PERIOD   12   TIME STEP   29
 
 SOLVING FOR HEAD 
                                                   Max.-Head-Change                         Max.-Flux-Residual
  Residual-Control   Outer-Iter.   Inner-Iter.     Column Row Layer    Maximum-Head-Change  Column Row Layer    Maximum-Flux-Residual          L2-NORM 
          0                 1           2             4    7     1       0.3214996659E-01       4    7    1         0.1693240176E+01      0.3622666768E+01
          0                 2           2             4    7     1      -0.3127337755E-02       4    7    1        -0.1693255518E+00      0.3622618258E+00
          0                 3           2             4    7     1       0.2129598849E-03       4    7    1         0.1185277923E-01      0.2535776104E-01
          0                 4           1             4    7     1      -0.8473873772E-05       4    7    1        -0.4847794007E-03      0.1037074961E-02

    ------------------------------------------------
       NWT REQUIRED            4 OUTER ITERATIONS 
       AND A TOTAL OF          7 INNER ITERATIONS.
    ------------------------------------------------

 NO OUTPUT CONTROL FOR STRESS PERIOD   12   TIME STEP   30



 STREAM LISTING     PERIOD     12   STEP       30

 LAYER ROW COL. STREAM  RCH.  FLOW INTO     FLOW TO   FLOW OUT OF   OVRLND.     DIRECT     STREAM       STREAM     STREAM     STREAM   STREAMBED  STREAMBED
                SEG.NO.  NO.  STRM. RCH.    AQUIFER    STRM. RCH.    RUNOFF     PRECIP       ET          HEAD       DEPTH      WIDTH   CONDCTNC.   GRADIENT

   1    1    1     1     1    1.9081E+01  2.1479E-01   1.8866E+01  0.000E+00  0.000E+00  0.000E+00  1.09413E+03  1.083E+00  1.169E+01  5.260E-02  1.361E+00
   1    2    2     1     2    1.8866E+01  3.3136E-01   1.8535E+01  0.000E+00  0.000E+00  0.000E+00  1.08914E+03  1.079E+00  1.161E+01  8.124E-02  1.360E+00
   1    3    3     1     3    1.8535E+01  2.8134E-01   1.8253E+01  0.000E+00  0.000E+00  0.000E+00  1.08349E+03  1.074E+00  1.151E+01  6.906E-02  1.358E+00
   1    3    4     1     4    1.8253E+01  2.5804E-01   1.7995E+01  0.000E+00  0.000E+00  0.000E+00  1.07848E+03  1.069E+00  1.143E+01  6.342E-02  1.356E+00
   1    4    5     2     1    1.5995E+01  3.0564E-01   1.5690E+01  0.000E+00  0.000E+00  0.000E+00  1.07285E+03  9.184E-01  1.200E+01  7.800E-02  1.306E+00
   1    5    6     2     2    1.5690E+01  2.3454E-01   1.5455E+01  0.000E+00  0.000E+00  0.000E+00  1.06742E+03  9.090E-01  1.200E+01  6.000E-02  1.303E+00
   1    6    6     2     3    1.5455E+01  2.3405E-01   1.5221E+01  0.000E+00  0.000E+00  0.000E+00  1.06269E+03  9.008E-01  1.200E+01  6.000E-02  1.300E+00
   1    7    6     2     4    1.5221E+01  2.3355E-01   1.4987E+01  0.000E+00  0.000E+00  0.000E+00  1.05797E+03  8.925E-01  1.200E+01  6.000E-02  1.297E+00
   1    8    6     2     5    1.4987E+01  2.3305E-01   1.4754E+01  0.000E+00  0.000E+00  0.000E+00  1.05324E+03  8.842E-01  1.200E+01  6.000E-02  1.295E+00
   1    3    5     3     1    2.0000E+00  2.8252E-01   1.7175E+00  0.000E+00  0.000E+00  0.000E+00  1.07555E+03  1.909E+00  9.636E+00  7.227E-02  1.955E+00
   1    3    6     3     2    1.7175E+00  2.4905E-01   1.4684E+00  0.000E+00  0.000E+00  0.000E+00  1.07264E+03  1.727E+00  8.909E+00  6.682E-02  1.864E+00
   1    3    7     3     3    1.4684E+00  1.9718E-01   1.2712E+00  0.000E+00  0.000E+00  0.000E+00  1.06987E+03  1.555E+00  8.218E+00  5.547E-02  1.777E+00
   1    4    8     3     4    1.2712E+00  2.2567E-01   1.0456E+00  0.000E+00  0.000E+00  0.000E+00  1.06682E+03  1.364E+00  7.455E+00  6.709E-02  1.682E+00
   1    5    8     3     5    1.0456E+00  1.5790E-01   8.8768E-01  0.000E+00  0.000E+00  0.000E+00  1.06362E+03  1.164E+00  6.655E+00  4.991E-02  1.582E+00
   1    6    8     3     6    8.8768E-01  5.5980E-02   8.3170E-01  0.000E+00  0.000E+00  0.000E+00  1.06158E+03  1.036E+00  6.145E+00  1.844E-02  1.518E+00
   1    5   10     4     1    1.0000E+01  9.0919E-02   9.9091E+00  0.000E+00  0.000E+00  0.000E+00  1.07836E+03  6.368E-01  1.000E+01  2.500E-02  1.212E+00
   1    5    9     4     2    9.9091E+00  1.8158E-01   9.7275E+00  0.000E+00  0.000E+00  0.000E+00  1.07154E+03  6.315E-01  1.000E+01  5.000E-02  1.211E+00
   1    6    8     4     3    9.7275E+00  1.2689E-01   9.6006E+00  0.000E+00  0.000E+00  0.000E+00  1.06381E+03  6.256E-01  1.000E+01  3.500E-02  1.209E+00
   1    6    8     5     1    1.0432E+01  2.2686E-01   1.0205E+01  0.000E+00  0.000E+00  0.000E+00  1.05868E+03  6.790E-01  1.542E+01  6.166E-02  1.226E+00
   1    7    7     5     2    1.0205E+01  2.7894E-01   9.9265E+00  0.000E+00  0.000E+00  0.000E+00  1.05417E+03  6.732E-01  1.519E+01  7.594E-02  1.224E+00
   1    8    7     5     3    9.9265E+00  1.9221E-01   9.7343E+00  0.000E+00  0.000E+00  0.000E+00  1.04992E+03  6.676E-01  1.497E+01  5.241E-02  1.223E+00
   1    8    6     5     4    9.7343E+00  1.3577E-01   9.5985E+00  0.000E+00  0.000E+00  0.000E+00  1.04691E+03  6.637E-01  1.482E+01  3.706E-02  1.221E+00
   1    9    6     6     1    2.4353E+01  2.5190E-01   2.4101E+01  0.000E+00  0.000E+00  0.000E+00  1.04393E+03  1.198E+00  1.200E+01  6.000E-02  1.399E+00
   1   10    7     6     2    2.4101E+01  2.5145E-01   2.3850E+01  0.000E+00  0.000E+00  0.000E+00  1.03937E+03  1.191E+00  1.200E+01  6.000E-02  1.397E+00
   1   11    7     6     3    2.3850E+01  2.5100E-01   2.3599E+01  0.000E+00  0.000E+00  0.000E+00  1.03482E+03  1.183E+00  1.200E+01  6.000E-02  1.394E+00
   1   12    7     6     4    2.3599E+01  2.5054E-01   2.3348E+01  0.000E+00  0.000E+00  0.000E+00  1.03027E+03  1.176E+00  1.200E+01  6.000E-02  1.392E+00
   1   13    7     6     5    2.3348E+01 -1.5214E-02   2.3363E+01  0.000E+00  0.000E+00  0.000E+00  1.02708E+03  1.172E+00  1.200E+01  2.400E-01 -2.113E-02
   1   14    9     7     1    1.5000E+02  1.3345E+00   1.4867E+02  0.000E+00  0.000E+00  0.000E+00  1.03987E+03  2.288E+00  5.529E+01  5.593E-01  7.954E-01
   1   13    8     7     2    1.4867E+02  1.8130E+00   1.4685E+02  0.000E+00  0.000E+00  0.000E+00  1.03478E+03  2.279E+00  5.526E+01  6.148E-01  9.830E-01
   1   13    7     7     3    1.4685E+02  1.4215E+00   1.4543E+02  0.000E+00  0.000E+00  0.000E+00  1.02969E+03  2.271E+00  5.522E+01  5.585E-01  8.485E-01
   1   13    6     8     1    1.6879E+02  8.6704E-01   1.6793E+02  0.000E+00  0.000E+00  0.000E+00  1.02482E+03  2.941E+00  4.265E+01  4.346E-01  6.650E-01
   1   13    5     8     2    1.6793E+02  1.3076E-01   1.6780E+02  0.000E+00  0.000E+00  0.000E+00  1.01856E+03  2.938E+00  4.260E+01  4.342E-01  1.004E-01
   1   13    4     8     3    1.6780E+02 -2.5766E+00   1.7037E+02  0.000E+00  0.000E+00  0.000E+00  1.01232E+03  2.946E+00  4.272E+01  4.353E+00 -1.973E-01
   1   13    3     8     4    1.7037E+02 -3.7380E+00   1.7411E+02  0.000E+00  0.000E+00  0.000E+00  1.00609E+03  2.967E+00  4.302E+01  4.384E+00 -2.842E-01
   1   13    2     8     5    1.7411E+02 -2.6196E+00   1.7673E+02  0.000E+00  0.000E+00  0.000E+00  9.99862E+02  2.987E+00  4.331E+01  4.414E+00 -1.978E-01
   1   13    1     8     6    1.7673E+02 -2.0127E+00   1.7874E+02  0.000E+00  0.000E+00  0.000E+00  9.94877E+02  3.002E+00  4.353E+01  2.661E+00 -2.521E-01
   1    8    6     9     1    0.0000E+00  0.0000E+00   0.0000E+00  0.000E+00  0.000E+00  0.000E+00  1.07875E+03  0.000E+00  4.000E+00  0.000E+00  1.000E+00
   1    8    5     9     2    0.0000E+00  0.0000E+00   0.0000E+00  0.000E+00  0.000E+00  0.000E+00  1.07825E+03  0.000E+00  4.000E+00  0.000E+00  1.000E+00





UNSATURATED ZONE PACKAGE VOLUMETRIC BUDGET FOR  TIME STEP    30 STRESS PERIOD   12
  ------------------------------------------------------------------------------



     CUMULATIVE VOLUMES      L**3       RATES FOR THIS TIME STEP      L**3/T
     ------------------                 ------------------------

           IN:                                      IN:
           ---                                      ---
        INFILTRATION =   428481030.9893          INFILTRATION =           0.8475

          OUT:                                     OUT:
          ----                                     ----
              UZF ET =   428067023.1506                UZF ET =           0.7500
        UZF RECHARGE =       73224.0000          UZF RECHARGE =       0.0000E+00

            IN - OUT =      340783.8387              IN - OUT =       9.7500E-02

          STORAGE:                                 STORAGE:
          --------                                 --------
      STORAGE CHANGE =      340783.6848        STORAGE CHANGE =       9.7500E-02

 PERCENT DISCREPANCY IS DIFFERENCE BETWEEN IN-OUT MINUS CHANGE IN STORAGE
 DIVIDED BY THE AVERAGE OF IN AND OUT TIMES 100

 PERCENT DISCREPANCY =           0.00     PERCENT DISCREPANCY =           0.00






1
  VOLUMETRIC BUDGET FOR AGRICULTURAL FIELDS AT  END OF TIME STEP   30, STRESS PERIOD  12
  ------------------------------------------------------------------------------

     CUMULATIVE VOLUMES      L**3       RATES FOR THIS TIME STEP      L**3/T
     ------------------                 ------------------------

           IN:                                      IN:
           ---                                      ---
               AG WELLS  =   403889344.0000                 AG WELLS  =           0.0000
      DIVERSION SEGMENTS =           0.0000        DIVERSION SEGMENTS =           0.0000
       IRRIGATION PONDS  =           0.0000         IRRIGATION PONDS  =           0.0000
           GW IRRIGATION =           0.0000             GW IRRIGATION =           0.0000
           SW IRRIGATION =           0.0000             SW IRRIGATION =           0.0000
        SYSTEM LOSSES GW =           0.0000          SYSTEM LOSSES GW =           0.0000
        SYSTEM LOSSES SW =           0.0000          SYSTEM LOSSES SW =           0.0000

                TOTAL IN =   403889344.0000                  TOTAL IN =           0.0000

          OUT:                                     OUT:
          ----                                     ----
               AG WELLS  =           0.0000                 AG WELLS  =           0.0000
      DIVERSION SEGMENTS =           0.0000        DIVERSION SEGMENTS =           0.0000
       IRRIGATION PONDS  =           0.0000         IRRIGATION PONDS  =           0.0000
           GW IRRIGATION =   403889344.0000             GW IRRIGATION =           0.0000
           SW IRRIGATION =           0.0000             SW IRRIGATION =           0.0000
        SYSTEM LOSSES GW =           0.0000          SYSTEM LOSSES GW =           0.0000
        SYSTEM LOSSES SW =           0.0000          SYSTEM LOSSES SW =           0.0000

               TOTAL OUT =   403889344.0000                 TOTAL OUT =           0.0000

                IN - OUT =           0.0000                  IN - OUT =           0.0000

     PERCENT DISCREPANCY =           0.00         PERCENT DISCREPANCY =           0.00



1
  VOLUMETRIC BUDGET FOR ENTIRE MODEL AT END OF TIME STEP   30, STRESS PERIOD  12
  ------------------------------------------------------------------------------

     CUMULATIVE VOLUMES      L**3       RATES FOR THIS TIME STEP      L**3/T
     ------------------                 ------------------------

           IN:                                      IN:
           ---                                      ---
             STORAGE     =   511110688.0000               STORAGE     =          10.0178
       CONSTANT HEAD     =           0.0000         CONSTANT HEAD     =           0.0000
     HEAD DEP BOUNDS     =     8290586.0000       HEAD DEP BOUNDS     =           0.2857
      STREAM LEAKAGE     =   352953408.0000        STREAM LEAKAGE     =          11.2995
        UZF RECHARGE     =       73223.9531          UZF RECHARGE     =           0.0000
               GW ET     =           0.0000                 GW ET     =           0.0000
     SURFACE LEAKAGE     =           0.0000       SURFACE LEAKAGE     =           0.0000
           AG WELLS      =           0.0000             AG WELLS      =           0.0000

                TOTAL IN =   872427904.0000                  TOTAL IN =          21.6030

          OUT:                                     OUT:
          ----                                     ----
             STORAGE     =   147109056.0000               STORAGE     =          10.3508
       CONSTANT HEAD     =           0.0000         CONSTANT HEAD     =           0.0000
     HEAD DEP BOUNDS     =     8498760.0000       HEAD DEP BOUNDS     =           0.2901
      STREAM LEAKAGE     =   306266752.0000        STREAM LEAKAGE     =          10.9622
        UZF RECHARGE     =           0.0000          UZF RECHARGE     =           0.0000
               GW ET     =     6666090.0000                 GW ET     =           0.0000
     SURFACE LEAKAGE     =           0.0000       SURFACE LEAKAGE     =           0.0000
           AG WELLS      =   403889344.0000             AG WELLS      =           0.0000

               TOTAL OUT =   872429952.0000                 TOTAL OUT =          21.6030

                IN - OUT =       -2048.0000                  IN - OUT =       5.7220E-06

     PERCENT DISCREPANCY =          -0.00         PERCENT DISCREPANCY =           0.00






         TIME SUMMARY AT END OF TIME STEP   30 IN STRESS PERIOD   12
                    SECONDS     MINUTES      HOURS       DAYS        YEARS
                    -----------------------------------------------------------
   TIME STEP LENGTH  87667.      1461.1      24.352      1.0147     2.77799E-03
 STRESS PERIOD TIME 2.63000E+06  43833.      730.56      30.440     8.33397E-02
         TOTAL TIME 2.90163E+07 4.83606E+05  8060.1      335.84     0.91947    
1
1
                            STRESS PERIOD NO.   13, LENGTH =   2630000.    
                            -----------------------------------------------

                              NUMBER OF TIME STEPS =    30

                               MULTIPLIER FOR DELT =     1.000

                            INITIAL TIME STEP SIZE =   87666.66    

 REUSING NON-PARAMETER GHB CELLS FROM LAST STRESS PERIOD

      2 GHB CELLS

 REUSING STREAM SEGMENT DATA FROM LAST STRESS PERIOD



            AREAL INFILTRATION RATE
 READING ON UNIT   19 WITH FORMAT: (FREE)              

            1           2           3           4           5           6           7           8           9          10
 ........................................................................................................................
   1   1.0000E-10  2.0000E-10   0.000       0.000       0.000       0.000       0.000       0.000       0.000       0.000    
   2   2.0000E-10  1.0000E-10  2.0000E-10   0.000       0.000      8.0000E-10  8.0000E-10  5.0000E-10   0.000       0.000    
   3    0.000      5.0000E-10  1.0000E-10  1.0000E-10  8.0000E-10  8.0000E-10  5.0000E-10  5.0000E-10   0.000       0.000    
   4   8.0000E-10  5.0000E-10  1.0000E-10  1.0000E-10  1.0000E-10  1.0000E-10  1.0000E-10  1.0000E-10  2.0000E-10   0.000    
   5   8.0000E-10  5.0000E-10  1.0000E-10  1.0000E-10  1.0000E-10  1.0000E-10  1.0000E-10  1.0000E-10  1.0000E-10  1.0000E-10
   6   8.0000E-10  5.0000E-10  5.0000E-10  2.0000E-10  2.0000E-10  1.0000E-10  1.0000E-10  1.0000E-10  1.0000E-10  5.0000E-10
   7   8.0000E-10  5.0000E-10  5.0000E-10  2.0000E-10  2.0000E-10  1.0000E-10  1.0000E-10  2.0000E-10  2.0000E-10   0.000    
   8    0.000      5.0000E-10  5.0000E-10  2.0000E-10  2.0000E-10  1.0000E-10  1.0000E-10  2.0000E-10  5.0000E-10   0.000    
   9    0.000      5.0000E-10  5.0000E-10  2.0000E-10  2.0000E-10  1.0000E-10  1.0000E-10  2.0000E-10  5.0000E-10   0.000    
  10    0.000      5.0000E-10  5.0000E-10  2.0000E-10  2.0000E-10  1.0000E-10  1.0000E-10  2.0000E-10  5.0000E-10  8.0000E-10
  11    0.000      1.0000E-10  1.0000E-10  1.0000E-10  1.0000E-10  1.0000E-10  1.0000E-10  2.0000E-10  5.0000E-10   0.000    
  12   1.0000E-10  1.0000E-10  1.0000E-10  1.0000E-10  1.0000E-10  1.0000E-10  1.0000E-10  1.0000E-10  2.0000E-10   0.000    
  13   1.0000E-10  1.0000E-10  2.0000E-10  2.0000E-10  2.0000E-10  2.0000E-10  2.0000E-10  1.0000E-10  1.0000E-10   0.000    
  14    0.000      2.0000E-10  5.0000E-10  5.0000E-10  5.0000E-10  5.0000E-10  5.0000E-10  2.0000E-10  1.0000E-10   0.000    
  15    0.000       0.000      8.0000E-10  8.0000E-10  8.0000E-10  8.0000E-10   0.000       0.000       0.000       0.000    

                  ET RATE =  5.000000E-10

 USING ET EXTINCTION DEPTH FROM PREVIOUS STRESS PERIOD. CURRENT PERIOD IS:      13

 USING EXTINCTION WATER CONTENT FROM PREVIOUS STRESS PERIOD. CURRENT PERIOD IS:      13

 USING AIR ENTRY PRESSURE FROM PREVIOUS STRESS PERIOD. CURRENT PERIOD IS:      13

 USING ROOT PRESSURE HEAD FROM PREVIOUS STRESS PERIOD. CURRENT PERIOD IS:      13

 USING ROOT ACTIVITY FROM PREVIOUS STRESS PERIOD. CURRENT PERIOD IS:      13

 PROCESSING AG STRESS PERIOD DATA

 READING AG STRESS PERIOD DATA

 READING IRRIGATION SEGMENT

 READING IRRIGATION WELL

 READING SUPPLEMENTAL WELL

 NO IRRPOND OR REUSING IRRPOND DATA FROM LAST STRESS PERIOD

 END PROCESSING AG STRESS PERIOD DATA OPTIONS
 
 SOLVING FOR HEAD 
                                                   Max.-Head-Change                         Max.-Flux-Residual
  Residual-Control   Outer-Iter.   Inner-Iter.     Column Row Layer    Maximum-Head-Change  Column Row Layer    Maximum-Flux-Residual          L2-NORM 
          0                 1           2             4    7     1       0.3171921983E-01       4    7    1         0.1670465234E+01      0.3586402319E+01
          0                 2           2             4    7     1      -0.3085437290E-02       4    7    1        -0.1670480174E+00      0.3586237994E+00
          0                 3           2             4    7     1       0.2101066246E-03       4    7    1         0.1169335213E-01      0.2510211376E-01
          0                 4           1             4    7     1      -0.8360340458E-05       4    7    1        -0.4782588389E-03      0.1026602755E-02

    ------------------------------------------------
       NWT REQUIRED            4 OUTER ITERATIONS 
       AND A TOTAL OF          7 INNER ITERATIONS.
    ------------------------------------------------

 NO OUTPUT CONTROL FOR STRESS PERIOD   13   TIME STEP    1
 
 SOLVING FOR HEAD 
                                                   Max.-Head-Change                         Max.-Flux-Residual
  Residual-Control   Outer-Iter.   Inner-Iter.     Column Row Layer    Maximum-Head-Change  Column Row Layer    Maximum-Flux-Residual          L2-NORM 
          0                 1           2             4    7     1       0.3129598841E-01       4    7    1         0.1648087576E+01      0.3545580110E+01
          0                 2           2             4    7     1      -0.3044267836E-02       4    7    1        -0.1648102126E+00      0.3545431136E+00
          0                 3           2             4    7     1       0.2073031429E-03       4    7    1         0.1153670610E-01      0.2481657390E-01
          0                 4           1             4    7     1      -0.8248786994E-05       4    7    1        -0.4718519929E-03      0.1014916754E-02

    ------------------------------------------------
       NWT REQUIRED            4 OUTER ITERATIONS 
       AND A TOTAL OF          7 INNER ITERATIONS.
    ------------------------------------------------

 NO OUTPUT CONTROL FOR STRESS PERIOD   13   TIME STEP    2
 
 SOLVING FOR HEAD 
                                                   Max.-Head-Change                         Max.-Flux-Residual
  Residual-Control   Outer-Iter.   Inner-Iter.     Column Row Layer    Maximum-Head-Change  Column Row Layer    Maximum-Flux-Residual          L2-NORM 
          0                 1           2             4    7     1       0.3087999604E-01       4    7    1         0.1626092240E+01      0.3505510119E+01
          0                 2           2             4    7     1      -0.3003802559E-02       4    7    1        -0.1626106410E+00      0.3505375550E+00
          0                 3           2             4    7     1       0.2045476128E-03       4    7    1         0.1138273638E-01      0.2453629839E-01
          0                 4           1             4    7     1      -0.8139141540E-05       4    7    1        -0.4655546143E-03      0.1003443801E-02

    ------------------------------------------------
       NWT REQUIRED            4 OUTER ITERATIONS 
       AND A TOTAL OF          7 INNER ITERATIONS.
    ------------------------------------------------

 NO OUTPUT CONTROL FOR STRESS PERIOD   13   TIME STEP    3
 
 SOLVING FOR HEAD 
                                                   Max.-Head-Change                         Max.-Flux-Residual
  Residual-Control   Outer-Iter.   Inner-Iter.     Column Row Layer    Maximum-Head-Change  Column Row Layer    Maximum-Flux-Residual          L2-NORM 
          0                 1           2             4    7     1       0.3047124290E-01       4    7    1         0.1604479569E+01      0.3466152450E+01
          0                 2           2             4    7     1      -0.2964041477E-02       4    7    1        -0.1604493369E+00      0.3466029972E+00
          0                 3           2             4    7     1       0.2018400363E-03       4    7    1         0.1123144538E-01      0.2426102216E-01
          0                 4           1             4    7     1      -0.8031404901E-05       4    7    1        -0.4593668191E-03      0.9922004134E-03

    ------------------------------------------------
       NWT REQUIRED            4 OUTER ITERATIONS 
       AND A TOTAL OF          7 INNER ITERATIONS.
    ------------------------------------------------

 NO OUTPUT CONTROL FOR STRESS PERIOD   13   TIME STEP    4
 
 SOLVING FOR HEAD 
                                                   Max.-Head-Change                         Max.-Flux-Residual
  Residual-Control   Outer-Iter.   Inner-Iter.     Column Row Layer    Maximum-Head-Change  Column Row Layer    Maximum-Flux-Residual          L2-NORM 
          0                 1           2             4    7     1       0.3006945066E-01       4    7    1         0.1583234901E+01      0.3427480119E+01
          0                 2           2             4    7     1      -0.2924957516E-02       4    7    1        -0.1583248342E+00      0.3427369069E+00
          0                 3           2             4    7     1       0.1991785684E-03       4    7    1         0.1108273045E-01      0.2399047279E-01
          0                 4           1             4    7     1      -0.7925502591E-05       4    7    1        -0.4532843698E-03      0.9811274127E-03

    ------------------------------------------------
       NWT REQUIRED            4 OUTER ITERATIONS 
       AND A TOTAL OF          7 INNER ITERATIONS.
    ------------------------------------------------

 NO OUTPUT CONTROL FOR STRESS PERIOD   13   TIME STEP    5
 
 SOLVING FOR HEAD 
                                                   Max.-Head-Change                         Max.-Flux-Residual
  Residual-Control   Outer-Iter.   Inner-Iter.     Column Row Layer    Maximum-Head-Change  Column Row Layer    Maximum-Flux-Residual          L2-NORM 
          0                 1           2             4    7     1       0.2967475722E-01       4    7    1         0.1562365814E+01      0.3389504366E+01
          0                 2           2             4    7     1      -0.2886564088E-02       4    7    1        -0.1562378904E+00      0.3389403954E+00
          0                 3           2             4    7     1       0.1965641234E-03       4    7    1         0.1093664466E-01      0.2372492470E-01
          0                 4           1             4    7     1      -0.7821471104E-05       4    7    1        -0.4473094471E-03      0.9703087302E-03

    ------------------------------------------------
       NWT REQUIRED            4 OUTER ITERATIONS 
       AND A TOTAL OF          7 INNER ITERATIONS.
    ------------------------------------------------

 NO OUTPUT CONTROL FOR STRESS PERIOD   13   TIME STEP    6
 
 SOLVING FOR HEAD 
                                                   Max.-Head-Change                         Max.-Flux-Residual
  Residual-Control   Outer-Iter.   Inner-Iter.     Column Row Layer    Maximum-Head-Change  Column Row Layer    Maximum-Flux-Residual          L2-NORM 
          0                 1           2             4    7     1       0.2928688280E-01       4    7    1         0.1541857450E+01      0.3352181177E+01
          0                 2           2             4    7     1      -0.2848833980E-02       4    7    1        -0.1541870199E+00      0.3352088182E+00
          0                 3           2             4    7     1       0.1939948482E-03       4    7    1         0.1079308399E-01      0.2346394026E-01
          0                 4           1             4    7     1      -0.7719237564E-05       4    7    1        -0.4414378138E-03      0.9599270295E-03

    ------------------------------------------------
       NWT REQUIRED            4 OUTER ITERATIONS 
       AND A TOTAL OF          7 INNER ITERATIONS.
    ------------------------------------------------

 NO OUTPUT CONTROL FOR STRESS PERIOD   13   TIME STEP    7
 
 SOLVING FOR HEAD 
                                                   Max.-Head-Change                         Max.-Flux-Residual
  Residual-Control   Outer-Iter.   Inner-Iter.     Column Row Layer    Maximum-Head-Change  Column Row Layer    Maximum-Flux-Residual          L2-NORM 
          0                 1           2             4    7     1       0.2890582717E-01       4    7    1         0.1521709975E+01      0.3315505789E+01
          0                 2           2             4    7     1      -0.2811767168E-02       4    7    1        -0.1521722393E+00      0.3315420190E+00
          0                 3           2             4    7     1       0.1914707403E-03       4    7    1         0.1065204960E-01      0.2320709438E-01
          0                 4           1             4    7     1      -0.7618800706E-05       4    7    1        -0.4356694926E-03      0.9491411213E-03

    ------------------------------------------------
       NWT REQUIRED            4 OUTER ITERATIONS 
       AND A TOTAL OF          7 INNER ITERATIONS.
    ------------------------------------------------

 NO OUTPUT CONTROL FOR STRESS PERIOD   13   TIME STEP    8
 
 SOLVING FOR HEAD 
                                                   Max.-Head-Change                         Max.-Flux-Residual
  Residual-Control   Outer-Iter.   Inner-Iter.     Column Row Layer    Maximum-Head-Change  Column Row Layer    Maximum-Flux-Residual          L2-NORM 
          0                 1           2             4    7     1       0.2853117927E-01       4    7    1         0.1501901366E+01      0.3279445328E+01
          0                 2           2             4    7     1      -0.2775323666E-02       4    7    1        -0.1501913462E+00      0.3279366751E+00
          0                 3           2             4    7     1       0.1889890779E-03       4    7    1         0.1051338735E-01      0.2295479737E-01
          0                 4           1             4    7     1      -0.7520053230E-05       4    7    1        -0.4299982015E-03      0.9388161191E-03

    ------------------------------------------------
       NWT REQUIRED            4 OUTER ITERATIONS 
       AND A TOTAL OF          7 INNER ITERATIONS.
    ------------------------------------------------

 NO OUTPUT CONTROL FOR STRESS PERIOD   13   TIME STEP    9
 
 SOLVING FOR HEAD 
                                                   Max.-Head-Change                         Max.-Flux-Residual
  Residual-Control   Outer-Iter.   Inner-Iter.     Column Row Layer    Maximum-Head-Change  Column Row Layer    Maximum-Flux-Residual          L2-NORM 
          0                 1           2             4    7     1       0.2816308451E-01       4    7    1         0.1482439660E+01      0.3244006057E+01
          0                 2           2             4    7     1      -0.2739517620E-02       4    7    1        -0.1482451443E+00      0.3243933437E+00
          0                 3           2             4    7     1       0.1865508232E-03       4    7    1         0.1037715344E-01      0.2270680652E-01
          0                 4           1             4    7     1      -0.7423032323E-05       4    7    1        -0.4244262118E-03      0.9286584879E-03

    ------------------------------------------------
       NWT REQUIRED            4 OUTER ITERATIONS 
       AND A TOTAL OF          7 INNER ITERATIONS.
    ------------------------------------------------

 NO OUTPUT CONTROL FOR STRESS PERIOD   13   TIME STEP   10
 
 SOLVING FOR HEAD 
                                                   Max.-Head-Change                         Max.-Flux-Residual
  Residual-Control   Outer-Iter.   Inner-Iter.     Column Row Layer    Maximum-Head-Change  Column Row Layer    Maximum-Flux-Residual          L2-NORM 
          0                 1           2             4    7     1       0.2780127584E-01       4    7    1         0.1463310384E+01      0.3209164076E+01
          0                 2           2             4    7     1      -0.2704323051E-02       4    7    1        -0.1463321862E+00      0.3209097260E+00
          0                 3           2             4    7     1       0.1841542078E-03       4    7    1         0.1024324659E-01      0.2246305161E-01
          0                 4           1             4    7     1      -0.7327669139E-05       4    7    1        -0.4189494277E-03      0.9186986575E-03

    ------------------------------------------------
       NWT REQUIRED            4 OUTER ITERATIONS 
       AND A TOTAL OF          7 INNER ITERATIONS.
    ------------------------------------------------

 NO OUTPUT CONTROL FOR STRESS PERIOD   13   TIME STEP   11
 
 SOLVING FOR HEAD 
                                                   Max.-Head-Change                         Max.-Flux-Residual
  Residual-Control   Outer-Iter.   Inner-Iter.     Column Row Layer    Maximum-Head-Change  Column Row Layer    Maximum-Flux-Residual          L2-NORM 
          0                 1           2             4    7     1       0.2744589002E-01       4    7    1         0.1444521707E+01      0.3174899817E+01
          0                 2           2             4    7     1      -0.2669753263E-02       4    7    1        -0.1444532889E+00      0.3174837604E+00
          0                 3           2             4    7     1       0.1818001376E-03       4    7    1         0.1011172401E-01      0.2222322475E-01
          0                 4           1             4    7     1      -0.7233998560E-05       4    7    1        -0.4135701372E-03      0.9088994787E-03

    ------------------------------------------------
       NWT REQUIRED            4 OUTER ITERATIONS 
       AND A TOTAL OF          7 INNER ITERATIONS.
    ------------------------------------------------

 NO OUTPUT CONTROL FOR STRESS PERIOD   13   TIME STEP   12
 
 SOLVING FOR HEAD 
                                                   Max.-Head-Change                         Max.-Flux-Residual
  Residual-Control   Outer-Iter.   Inner-Iter.     Column Row Layer    Maximum-Head-Change  Column Row Layer    Maximum-Flux-Residual          L2-NORM 
          0                 1           2             4    7     1       0.2709638594E-01       4    7    1         0.1426044024E+01      0.3141201763E+01
          0                 2           2             4    7     1      -0.2635755621E-02       4    7    1        -0.1426054918E+00      0.3141143430E+00
          0                 3           2             4    7     1       0.1794850285E-03       4    7    1         0.9982378441E-02      0.2198740366E-01
          0                 4           1             4    7     1      -0.7141877944E-05       4    7    1        -0.4082798916E-03      0.8992369300E-03

    ------------------------------------------------
       NWT REQUIRED            4 OUTER ITERATIONS 
       AND A TOTAL OF          7 INNER ITERATIONS.
    ------------------------------------------------

 NO OUTPUT CONTROL FOR STRESS PERIOD   13   TIME STEP   13
 
 SOLVING FOR HEAD 
                                                   Max.-Head-Change                         Max.-Flux-Residual
  Residual-Control   Outer-Iter.   Inner-Iter.     Column Row Layer    Maximum-Head-Change  Column Row Layer    Maximum-Flux-Residual          L2-NORM 
          0                 1           2             4    7     1       0.2675305125E-01       4    7    1         0.1407893318E+01      0.3108059334E+01
          0                 2           2             4    7     1      -0.2602358103E-02       4    7    1        -0.1407903933E+00      0.3108005202E+00
          0                 3           2             4    7     1       0.1772107856E-03       4    7    1         0.9855321742E-02      0.2175548997E-01
          0                 4           1             4    7     1      -0.7051383736E-05       4    7    1        -0.4030832808E-03      0.8897895765E-03

    ------------------------------------------------
       NWT REQUIRED            4 OUTER ITERATIONS 
       AND A TOTAL OF          7 INNER ITERATIONS.
    ------------------------------------------------

 NO OUTPUT CONTROL FOR STRESS PERIOD   13   TIME STEP   14
 
 SOLVING FOR HEAD 
                                                   Max.-Head-Change                         Max.-Flux-Residual
  Residual-Control   Outer-Iter.   Inner-Iter.     Column Row Layer    Maximum-Head-Change  Column Row Layer    Maximum-Flux-Residual          L2-NORM 
          0                 1           2             4    7     1       0.2641548488E-01       4    7    1         0.1390047803E+01      0.3075460287E+01
          0                 2           2             4    7     1      -0.2569521697E-02       4    7    1        -0.1390058145E+00      0.3075409488E+00
          0                 3           2             4    7     1       0.1749747519E-03       4    7    1         0.9730401430E-02      0.2152735278E-01
          0                 4           1             4    7     1      -0.6962409903E-05       4    7    1        -0.3979740181E-03      0.8804306834E-03

    ------------------------------------------------
       NWT REQUIRED            4 OUTER ITERATIONS 
       AND A TOTAL OF          7 INNER ITERATIONS.
    ------------------------------------------------

 NO OUTPUT CONTROL FOR STRESS PERIOD   13   TIME STEP   15
 
 SOLVING FOR HEAD 
                                                   Max.-Head-Change                         Max.-Flux-Residual
  Residual-Control   Outer-Iter.   Inner-Iter.     Column Row Layer    Maximum-Head-Change  Column Row Layer    Maximum-Flux-Residual          L2-NORM 
          0                 1           2             4    7     1       0.2608383759E-01       4    7    1         0.1372516045E+01      0.3043393833E+01
          0                 2           2             4    7     1      -0.2537261068E-02       4    7    1        -0.1372526123E+00      0.3043346603E+00
          0                 3           2             4    7     1       0.1727779265E-03       4    7    1         0.9607677473E-02      0.2130293414E-01
          0                 4           1             4    7     1      -0.6874995934E-05       4    7    1        -0.3929546053E-03      0.8712607224E-03

    ------------------------------------------------
       NWT REQUIRED            4 OUTER ITERATIONS 
       AND A TOTAL OF          7 INNER ITERATIONS.
    ------------------------------------------------

 NO OUTPUT CONTROL FOR STRESS PERIOD   13   TIME STEP   16
 
 SOLVING FOR HEAD 
                                                   Max.-Head-Change                         Max.-Flux-Residual
  Residual-Control   Outer-Iter.   Inner-Iter.     Column Row Layer    Maximum-Head-Change  Column Row Layer    Maximum-Flux-Residual          L2-NORM 
          0                 1           2             4    7     1       0.2575771037E-01       4    7    1         0.1355276498E+01      0.3011835030E+01
          0                 2           2             4    7     1      -0.2505537401E-02       4    7    1        -0.1355286319E+00      0.3011789988E+00
          0                 3           2             4    7     1       0.1706176661E-03       4    7    1         0.9486999033E-02      0.2108206578E-01
          0                 4           1             4    7     1      -0.6789037407E-05       4    7    1        -0.3880188460E-03      0.8622429123E-03

    ------------------------------------------------
       NWT REQUIRED            4 OUTER ITERATIONS 
       AND A TOTAL OF          7 INNER ITERATIONS.
    ------------------------------------------------

 NO OUTPUT CONTROL FOR STRESS PERIOD   13   TIME STEP   17
 
 SOLVING FOR HEAD 
                                                   Max.-Head-Change                         Max.-Flux-Residual
  Residual-Control   Outer-Iter.   Inner-Iter.     Column Row Layer    Maximum-Head-Change  Column Row Layer    Maximum-Flux-Residual          L2-NORM 
          0                 1           2             4    7     1       0.2543725928E-01       4    7    1         0.1338337840E+01      0.2980783182E+01
          0                 2           2             4    7     1      -0.2474365879E-02       4    7    1        -0.1338347411E+00      0.2980740492E+00
          0                 3           2             4    7     1       0.1684950048E-03       4    7    1         0.9368426865E-02      0.2086472359E-01
          0                 4           1             4    7     1      -0.6704574619E-05       4    7    1        -0.3831692463E-03      0.8533408110E-03

    ------------------------------------------------
       NWT REQUIRED            4 OUTER ITERATIONS 
       AND A TOTAL OF          7 INNER ITERATIONS.
    ------------------------------------------------

 NO OUTPUT CONTROL FOR STRESS PERIOD   13   TIME STEP   18
 
 SOLVING FOR HEAD 
                                                   Max.-Head-Change                         Max.-Flux-Residual
  Residual-Control   Outer-Iter.   Inner-Iter.     Column Row Layer    Maximum-Head-Change  Column Row Layer    Maximum-Flux-Residual          L2-NORM 
          0                 1           2             4    7     1       0.2512222697E-01       4    7    1         0.1321686137E+01      0.2950229938E+01
          0                 2           2             4    7     1      -0.2443721467E-02       4    7    1        -0.1321695465E+00      0.2950189833E+00
          0                 3           2             4    7     1       0.1664082371E-03       4    7    1         0.9251863411E-02      0.2065088323E-01
          0                 4           1             4    7     1      -0.6621540449E-05       4    7    1        -0.3784017890E-03      0.8445773210E-03

    ------------------------------------------------
       NWT REQUIRED            4 OUTER ITERATIONS 
       AND A TOTAL OF          7 INNER ITERATIONS.
    ------------------------------------------------

 NO OUTPUT CONTROL FOR STRESS PERIOD   13   TIME STEP   19
 
 SOLVING FOR HEAD 
                                                   Max.-Head-Change                         Max.-Flux-Residual
  Residual-Control   Outer-Iter.   Inner-Iter.     Column Row Layer    Maximum-Head-Change  Column Row Layer    Maximum-Flux-Residual          L2-NORM 
          0                 1           2             4    7     1       0.2481249742E-01       4    7    1         0.1305315388E+01      0.2920152795E+01
          0                 2           2             4    7     1      -0.2413592877E-02       4    7    1        -0.1305324479E+00      0.2920114551E+00
          0                 3           2             4    7     1       0.1643565955E-03       4    7    1         0.9137266700E-02      0.2044039791E-01
          0                 4           1             4    7     1      -0.6539903468E-05       4    7    1        -0.3737147774E-03      0.8359902409E-03

    ------------------------------------------------
       NWT REQUIRED            4 OUTER ITERATIONS 
       AND A TOTAL OF          7 INNER ITERATIONS.
    ------------------------------------------------

 NO OUTPUT CONTROL FOR STRESS PERIOD   13   TIME STEP   20
 
 SOLVING FOR HEAD 
                                                   Max.-Head-Change                         Max.-Flux-Residual
  Residual-Control   Outer-Iter.   Inner-Iter.     Column Row Layer    Maximum-Head-Change  Column Row Layer    Maximum-Flux-Residual          L2-NORM 
          0                 1           2             4    7     1       0.2450809417E-01       4    7    1         0.1289226919E+01      0.2890554065E+01
          0                 2           2             4    7     1      -0.2383982402E-02       4    7    1        -0.1289235781E+00      0.2890517625E+00
          0                 3           2             4    7     1       0.1623402350E-03       4    7    1         0.9024645980E-02      0.2023324647E-01
          0                 4           1             4    7     1      -0.6459670352E-05       4    7    1        -0.3691085667E-03      0.8275039783E-03

    ------------------------------------------------
       NWT REQUIRED            4 OUTER ITERATIONS 
       AND A TOTAL OF          7 INNER ITERATIONS.
    ------------------------------------------------

 NO OUTPUT CONTROL FOR STRESS PERIOD   13   TIME STEP   21
 
 SOLVING FOR HEAD 
                                                   Max.-Head-Change                         Max.-Flux-Residual
  Residual-Control   Outer-Iter.   Inner-Iter.     Column Row Layer    Maximum-Head-Change  Column Row Layer    Maximum-Flux-Residual          L2-NORM 
          0                 1           2             4    7     1       0.2420876725E-01       4    7    1         0.1273407267E+01      0.2861416940E+01
          0                 2           2             4    7     1      -0.2354865723E-02       4    7    1        -0.1273415906E+00      0.2861382268E+00
          0                 3           2             4    7     1       0.1603575005E-03       4    7    1         0.8913907015E-02      0.2002929424E-01
          0                 4           1             4    7     1      -0.6380775595E-05       4    7    1        -0.3645793433E-03      0.8191750148E-03

    ------------------------------------------------
       NWT REQUIRED            4 OUTER ITERATIONS 
       AND A TOTAL OF          7 INNER ITERATIONS.
    ------------------------------------------------

 NO OUTPUT CONTROL FOR STRESS PERIOD   13   TIME STEP   22
 
 SOLVING FOR HEAD 
                                                   Max.-Head-Change                         Max.-Flux-Residual
  Residual-Control   Outer-Iter.   Inner-Iter.     Column Row Layer    Maximum-Head-Change  Column Row Layer    Maximum-Flux-Residual          L2-NORM 
          0                 1           2             4    7     1       0.2391440767E-01       4    7    1         0.1257850813E+01      0.2832731099E+01
          0                 2           2             4    7     1      -0.2326232241E-02       4    7    1        -0.1257859234E+00      0.2832697669E+00
          0                 3           2             4    7     1       0.1584076698E-03       4    7    1         0.8805010476E-02      0.1982852826E-01
          0                 4           1             4    7     1      -0.6303190184E-05       4    7    1        -0.3601254725E-03      0.8109276184E-03

    ------------------------------------------------
       NWT REQUIRED            4 OUTER ITERATIONS 
       AND A TOTAL OF          7 INNER ITERATIONS.
    ------------------------------------------------

 NO OUTPUT CONTROL FOR STRESS PERIOD   13   TIME STEP   23
 
 SOLVING FOR HEAD 
                                                   Max.-Head-Change                         Max.-Flux-Residual
  Residual-Control   Outer-Iter.   Inner-Iter.     Column Row Layer    Maximum-Head-Change  Column Row Layer    Maximum-Flux-Residual          L2-NORM 
          0                 1           2             4    7     1       0.2362504740E-01       4    7    1         0.1242559250E+01      0.2804487565E+01
          0                 2           2             4    7     1      -0.2298085065E-02       4    7    1        -0.1242567460E+00      0.2804455641E+00
          0                 3           2             4    7     1       0.1564909546E-03       4    7    1         0.8697968213E-02      0.1963084109E-01
          0                 4           1             4    7     1      -0.6226922294E-05       4    7    1        -0.3557474447E-03      0.8028823357E-03

    ------------------------------------------------
       NWT REQUIRED            4 OUTER ITERATIONS 
       AND A TOTAL OF          7 INNER ITERATIONS.
    ------------------------------------------------

 NO OUTPUT CONTROL FOR STRESS PERIOD   13   TIME STEP   24
 
 SOLVING FOR HEAD 
                                                   Max.-Head-Change                         Max.-Flux-Residual
  Residual-Control   Outer-Iter.   Inner-Iter.     Column Row Layer    Maximum-Head-Change  Column Row Layer    Maximum-Flux-Residual          L2-NORM 
          0                 1           2             4    7     1       0.2334057547E-01       4    7    1         0.1227526893E+01      0.2776679250E+01
          0                 2           2             4    7     1      -0.2270413400E-02       4    7    1        -0.1227534898E+00      0.2776648423E+00
          0                 3           2             4    7     1       0.1546066194E-03       4    7    1         0.8592740426E-02      0.1943621431E-01
          0                 4           1             4    7     1      -0.6151942450E-05       4    7    1        -0.3514435941E-03      0.7949117550E-03

    ------------------------------------------------
       NWT REQUIRED            4 OUTER ITERATIONS 
       AND A TOTAL OF          7 INNER ITERATIONS.
    ------------------------------------------------

 NO OUTPUT CONTROL FOR STRESS PERIOD   13   TIME STEP   25
 
 SOLVING FOR HEAD 
                                                   Max.-Head-Change                         Max.-Flux-Residual
  Residual-Control   Outer-Iter.   Inner-Iter.     Column Row Layer    Maximum-Head-Change  Column Row Layer    Maximum-Flux-Residual          L2-NORM 
          0                 1           2             4    7     1       0.2306088463E-01       4    7    1         0.1212747988E+01      0.2749290368E+01
          0                 2           2             4    7     1      -0.2243206812E-02       4    7    1        -0.1212755793E+00      0.2749260876E+00
          0                 3           2             4    7     1       0.1527539544E-03       4    7    1         0.8489286824E-02      0.1924452514E-01
          0                 4           1             4    7     1      -0.6078223370E-05       4    7    1        -0.3472123424E-03      0.7870823615E-03

    ------------------------------------------------
       NWT REQUIRED            4 OUTER ITERATIONS 
       AND A TOTAL OF          7 INNER ITERATIONS.
    ------------------------------------------------

 NO OUTPUT CONTROL FOR STRESS PERIOD   13   TIME STEP   26
 
 SOLVING FOR HEAD 
                                                   Max.-Head-Change                         Max.-Flux-Residual
  Residual-Control   Outer-Iter.   Inner-Iter.     Column Row Layer    Maximum-Head-Change  Column Row Layer    Maximum-Flux-Residual          L2-NORM 
          0                 1           2             4    7     1       0.2278573789E-01       4    7    1         0.1198209628E+01      0.2722321524E+01
          0                 2           2             4    7     1      -0.2216442251E-02       4    7    1        -0.1198217240E+00      0.2722293536E+00
          0                 3           2             4    7     1       0.1509313900E-03       4    7    1         0.8387517099E-02      0.1905574895E-01
          0                 4           1             4    7     1      -0.6005701731E-05       4    7    1        -0.3430499587E-03      0.7793521602E-03

    ------------------------------------------------
       NWT REQUIRED            4 OUTER ITERATIONS 
       AND A TOTAL OF          7 INNER ITERATIONS.
    ------------------------------------------------

 NO OUTPUT CONTROL FOR STRESS PERIOD   13   TIME STEP   27
 
 SOLVING FOR HEAD 
                                                   Max.-Head-Change                         Max.-Flux-Residual
  Residual-Control   Outer-Iter.   Inner-Iter.     Column Row Layer    Maximum-Head-Change  Column Row Layer    Maximum-Flux-Residual          L2-NORM 
          0                 1           2             4    7     1       0.2251530674E-01       4    7    1         0.1183921564E+01      0.2695757086E+01
          0                 2           2             4    7     1      -0.2190136395E-02       4    7    1        -0.1183928987E+00      0.2695729731E+00
          0                 3           2             4    7     1       0.1491400617E-03       4    7    1         0.8287499467E-02      0.1886986487E-01
          0                 4           1             4    7     1      -0.5934423125E-05       4    7    1        -0.3389592391E-03      0.7717961935E-03

    ------------------------------------------------
       NWT REQUIRED            4 OUTER ITERATIONS 
       AND A TOTAL OF          7 INNER ITERATIONS.
    ------------------------------------------------

 NO OUTPUT CONTROL FOR STRESS PERIOD   13   TIME STEP   28
 
 SOLVING FOR HEAD 
                                                   Max.-Head-Change                         Max.-Flux-Residual
  Residual-Control   Outer-Iter.   Inner-Iter.     Column Row Layer    Maximum-Head-Change  Column Row Layer    Maximum-Flux-Residual          L2-NORM 
          0                 1           2             4    7     1       0.2224922099E-01       4    7    1         0.1169863302E+01      0.2669590443E+01
          0                 2           2             4    7     1      -0.2164253236E-02       4    7    1        -0.1169870542E+00      0.2669563529E+00
          0                 3           2             4    7     1       0.1473775169E-03       4    7    1         0.8189090475E-02      0.1868667236E-01
          0                 4           1             4    7     1      -0.5864289924E-05       4    7    1        -0.3349343010E-03      0.7642736197E-03

    ------------------------------------------------
       NWT REQUIRED            4 OUTER ITERATIONS 
       AND A TOTAL OF          7 INNER ITERATIONS.
    ------------------------------------------------

 NO OUTPUT CONTROL FOR STRESS PERIOD   13   TIME STEP   29
 
 SOLVING FOR HEAD 
                                                   Max.-Head-Change                         Max.-Flux-Residual
  Residual-Control   Outer-Iter.   Inner-Iter.     Column Row Layer    Maximum-Head-Change  Column Row Layer    Maximum-Flux-Residual          L2-NORM 
          0                 1           2             4    7     1       0.2198765358E-01       4    7    1         0.1156045035E+01      0.2643816317E+01
          0                 2           2             4    7     1      -0.2138809596E-02       4    7    1        -0.1156052096E+00      0.2643790246E+00
          0                 3           2             4    7     1       0.1456449020E-03       4    7    1         0.8092361484E-02      0.1850624861E-01
          0                 4           1             4    7     1      -0.5795347603E-05       4    7    1        -0.3309780902E-03      0.7568784566E-03

    ------------------------------------------------
       NWT REQUIRED            4 OUTER ITERATIONS 
       AND A TOTAL OF          7 INNER ITERATIONS.
    ------------------------------------------------

 NO OUTPUT CONTROL FOR STRESS PERIOD   13   TIME STEP   30



 STREAM LISTING     PERIOD     13   STEP       30

 LAYER ROW COL. STREAM  RCH.  FLOW INTO     FLOW TO   FLOW OUT OF   OVRLND.     DIRECT     STREAM       STREAM     STREAM     STREAM   STREAMBED  STREAMBED
                SEG.NO.  NO.  STRM. RCH.    AQUIFER    STRM. RCH.    RUNOFF     PRECIP       ET          HEAD       DEPTH      WIDTH   CONDCTNC.   GRADIENT

   1    1    1     1     1    1.7250E+01  2.0269E-01   1.7047E+01  0.000E+00  0.000E+00  0.000E+00  1.09410E+03  1.052E+00  1.112E+01  5.002E-02  1.351E+00
   1    2    2     1     2    1.7047E+01  3.1258E-01   1.6735E+01  0.000E+00  0.000E+00  0.000E+00  1.08911E+03  1.047E+00  1.103E+01  7.723E-02  1.349E+00
   1    3    3     1     3    1.6735E+01  2.6529E-01   1.6469E+01  0.000E+00  0.000E+00  0.000E+00  1.08346E+03  1.042E+00  1.094E+01  6.563E-02  1.347E+00
   1    3    4     1     4    1.6469E+01  2.4324E-01   1.6226E+01  0.000E+00  0.000E+00  0.000E+00  1.07845E+03  1.038E+00  1.085E+01  6.024E-02  1.346E+00
   1    4    5     2     1    1.4226E+01  3.0073E-01   1.3925E+01  0.000E+00  0.000E+00  0.000E+00  1.07279E+03  8.555E-01  1.200E+01  7.800E-02  1.285E+00
   1    5    6     2     2    1.3925E+01  2.3075E-01   1.3695E+01  0.000E+00  0.000E+00  0.000E+00  1.06736E+03  8.458E-01  1.200E+01  6.000E-02  1.282E+00
   1    6    6     2     3    1.3695E+01  2.3024E-01   1.3464E+01  0.000E+00  0.000E+00  0.000E+00  1.06263E+03  8.373E-01  1.200E+01  6.000E-02  1.279E+00
   1    7    6     2     4    1.3464E+01  2.2972E-01   1.3235E+01  0.000E+00  0.000E+00  0.000E+00  1.05790E+03  8.287E-01  1.200E+01  6.000E-02  1.276E+00
   1    8    6     2     5    1.3235E+01  2.2921E-01   1.3005E+01  0.000E+00  0.000E+00  0.000E+00  1.05318E+03  8.202E-01  1.200E+01  6.000E-02  1.273E+00
   1    3    5     3     1    2.0000E+00  2.8252E-01   1.7175E+00  0.000E+00  0.000E+00  0.000E+00  1.07555E+03  1.909E+00  9.636E+00  7.227E-02  1.955E+00
   1    3    6     3     2    1.7175E+00  2.4905E-01   1.4684E+00  0.000E+00  0.000E+00  0.000E+00  1.07264E+03  1.727E+00  8.909E+00  6.682E-02  1.864E+00
   1    3    7     3     3    1.4684E+00  1.9718E-01   1.2712E+00  0.000E+00  0.000E+00  0.000E+00  1.06987E+03  1.555E+00  8.218E+00  5.547E-02  1.777E+00
   1    4    8     3     4    1.2712E+00  2.2567E-01   1.0456E+00  0.000E+00  0.000E+00  0.000E+00  1.06682E+03  1.364E+00  7.455E+00  6.709E-02  1.682E+00
   1    5    8     3     5    1.0456E+00  1.5790E-01   8.8768E-01  0.000E+00  0.000E+00  0.000E+00  1.06362E+03  1.164E+00  6.655E+00  4.991E-02  1.582E+00
   1    6    8     3     6    8.8768E-01  5.5980E-02   8.3170E-01  0.000E+00  0.000E+00  0.000E+00  1.06158E+03  1.036E+00  6.145E+00  1.844E-02  1.518E+00
   1    5   10     4     1    1.0000E+01  9.0919E-02   9.9091E+00  0.000E+00  0.000E+00  0.000E+00  1.07836E+03  6.368E-01  1.000E+01  2.500E-02  1.212E+00
   1    5    9     4     2    9.9091E+00  1.8158E-01   9.7275E+00  0.000E+00  0.000E+00  0.000E+00  1.07154E+03  6.315E-01  1.000E+01  5.000E-02  1.211E+00
   1    6    8     4     3    9.7275E+00  1.2689E-01   9.6006E+00  0.000E+00  0.000E+00  0.000E+00  1.06381E+03  6.256E-01  1.000E+01  3.500E-02  1.209E+00
   1    6    8     5     1    1.0432E+01  2.2686E-01   1.0205E+01  0.000E+00  0.000E+00  0.000E+00  1.05868E+03  6.790E-01  1.542E+01  6.166E-02  1.226E+00
   1    7    7     5     2    1.0205E+01  2.7894E-01   9.9265E+00  0.000E+00  0.000E+00  0.000E+00  1.05417E+03  6.732E-01  1.519E+01  7.594E-02  1.224E+00
   1    8    7     5     3    9.9265E+00  1.9221E-01   9.7343E+00  0.000E+00  0.000E+00  0.000E+00  1.04992E+03  6.676E-01  1.497E+01  5.241E-02  1.223E+00
   1    8    6     5     4    9.7343E+00  1.3577E-01   9.5985E+00  0.000E+00  0.000E+00  0.000E+00  1.04691E+03  6.637E-01  1.482E+01  3.706E-02  1.221E+00
   1    9    6     6     1    2.2604E+01  2.4874E-01   2.2355E+01  0.000E+00  0.000E+00  0.000E+00  1.04387E+03  1.146E+00  1.200E+01  6.000E-02  1.382E+00
   1   10    7     6     2    2.2355E+01  2.4828E-01   2.2107E+01  0.000E+00  0.000E+00  0.000E+00  1.03932E+03  1.138E+00  1.200E+01  6.000E-02  1.379E+00
   1   11    7     6     3    2.2107E+01  2.4782E-01   2.1859E+01  0.000E+00  0.000E+00  0.000E+00  1.03477E+03  1.130E+00  1.200E+01  6.000E-02  1.377E+00
   1   12    7     6     4    2.1859E+01  2.4736E-01   2.1612E+01  0.000E+00  0.000E+00  0.000E+00  1.03021E+03  1.123E+00  1.200E+01  6.000E-02  1.374E+00
   1   13    7     6     5    2.1612E+01 -2.0748E-02   2.1632E+01  0.000E+00  0.000E+00  0.000E+00  1.02703E+03  1.119E+00  1.200E+01  2.400E-01 -2.882E-02
   1   14    9     7     1    1.5000E+02  1.3344E+00   1.4867E+02  0.000E+00  0.000E+00  0.000E+00  1.03987E+03  2.288E+00  5.529E+01  5.593E-01  7.953E-01
   1   13    8     7     2    1.4867E+02  1.8173E+00   1.4685E+02  0.000E+00  0.000E+00  0.000E+00  1.03478E+03  2.279E+00  5.526E+01  6.148E-01  9.853E-01
   1   13    7     7     3    1.4685E+02  1.4382E+00   1.4541E+02  0.000E+00  0.000E+00  0.000E+00  1.02969E+03  2.271E+00  5.522E+01  5.585E-01  8.584E-01
   1   13    6     8     1    1.6704E+02  8.7786E-01   1.6616E+02  0.000E+00  0.000E+00  0.000E+00  1.02480E+03  2.930E+00  4.248E+01  4.329E-01  6.759E-01
   1   13    5     8     2    1.6616E+02  1.4507E-01   1.6602E+02  0.000E+00  0.000E+00  0.000E+00  1.01855E+03  2.927E+00  4.244E+01  4.324E-01  1.118E-01
   1   13    4     8     3    1.6602E+02 -2.5158E+00   1.6854E+02  0.000E+00  0.000E+00  0.000E+00  1.01231E+03  2.934E+00  4.255E+01  4.336E+00 -1.934E-01
   1   13    3     8     4    1.6854E+02 -3.7021E+00   1.7224E+02  0.000E+00  0.000E+00  0.000E+00  1.00608E+03  2.955E+00  4.284E+01  4.366E+00 -2.827E-01
   1   13    2     8     5    1.7224E+02 -2.5993E+00   1.7484E+02  0.000E+00  0.000E+00  0.000E+00  9.99850E+02  2.975E+00  4.314E+01  4.396E+00 -1.971E-01
   1   13    1     8     6    1.7484E+02 -1.9952E+00   1.7683E+02  0.000E+00  0.000E+00  0.000E+00  9.94865E+02  2.990E+00  4.335E+01  2.651E+00 -2.509E-01
   1    8    6     9     1    0.0000E+00  0.0000E+00   0.0000E+00  0.000E+00  0.000E+00  0.000E+00  1.07875E+03  0.000E+00  4.000E+00  0.000E+00  1.000E+00
   1    8    5     9     2    0.0000E+00  0.0000E+00   0.0000E+00  0.000E+00  0.000E+00  0.000E+00  1.07825E+03  0.000E+00  4.000E+00  0.000E+00  1.000E+00





UNSATURATED ZONE PACKAGE VOLUMETRIC BUDGET FOR  TIME STEP    30 STRESS PERIOD   13
  ------------------------------------------------------------------------------



     CUMULATIVE VOLUMES      L**3       RATES FOR THIS TIME STEP      L**3/T
     ------------------                 ------------------------

           IN:                                      IN:
           ---                                      ---
        INFILTRATION =   430709955.8621          INFILTRATION =           0.8475

          OUT:                                     OUT:
          ----                                     ----
              UZF ET =   430039523.0165                UZF ET =           0.7500
        UZF RECHARGE =       73224.0000          UZF RECHARGE =       0.0000E+00

            IN - OUT =      597208.8455              IN - OUT =       9.7500E-02

          STORAGE:                                 STORAGE:
          --------                                 --------
      STORAGE CHANGE =      597208.7153        STORAGE CHANGE =       9.7500E-02

 PERCENT DISCREPANCY IS DIFFERENCE BETWEEN IN-OUT MINUS CHANGE IN STORAGE
 DIVIDED BY THE AVERAGE OF IN AND OUT TIMES 100

 PERCENT DISCREPANCY =           0.00     PERCENT DISCREPANCY =           0.00






1
  VOLUMETRIC BUDGET FOR AGRICULTURAL FIELDS AT  END OF TIME STEP   30, STRESS PERIOD  13
  ------------------------------------------------------------------------------

     CUMULATIVE VOLUMES      L**3       RATES FOR THIS TIME STEP      L**3/T
     ------------------                 ------------------------

           IN:                                      IN:
           ---                                      ---
               AG WELLS  =   403889344.0000                 AG WELLS  =           0.0000
      DIVERSION SEGMENTS =           0.0000        DIVERSION SEGMENTS =           0.0000
       IRRIGATION PONDS  =           0.0000         IRRIGATION PONDS  =           0.0000
           GW IRRIGATION =           0.0000             GW IRRIGATION =           0.0000
           SW IRRIGATION =           0.0000             SW IRRIGATION =           0.0000
        SYSTEM LOSSES GW =           0.0000          SYSTEM LOSSES GW =           0.0000
        SYSTEM LOSSES SW =           0.0000          SYSTEM LOSSES SW =           0.0000

                TOTAL IN =   403889344.0000                  TOTAL IN =           0.0000

          OUT:                                     OUT:
          ----                                     ----
               AG WELLS  =           0.0000                 AG WELLS  =           0.0000
      DIVERSION SEGMENTS =           0.0000        DIVERSION SEGMENTS =           0.0000
       IRRIGATION PONDS  =           0.0000         IRRIGATION PONDS  =           0.0000
           GW IRRIGATION =   403889344.0000             GW IRRIGATION =           0.0000
           SW IRRIGATION =           0.0000             SW IRRIGATION =           0.0000
        SYSTEM LOSSES GW =           0.0000          SYSTEM LOSSES GW =           0.0000
        SYSTEM LOSSES SW =           0.0000          SYSTEM LOSSES SW =           0.0000

               TOTAL OUT =   403889344.0000                 TOTAL OUT =           0.0000

                IN - OUT =           0.0000                  IN - OUT =           0.0000

     PERCENT DISCREPANCY =           0.00         PERCENT DISCREPANCY =           0.00



1
  VOLUMETRIC BUDGET FOR ENTIRE MODEL AT END OF TIME STEP   30, STRESS PERIOD  13
  ------------------------------------------------------------------------------

     CUMULATIVE VOLUMES      L**3       RATES FOR THIS TIME STEP      L**3/T
     ------------------                 ------------------------

           IN:                                      IN:
           ---                                      ---
             STORAGE     =   534462784.0000               STORAGE     =           7.7829
       CONSTANT HEAD     =           0.0000         CONSTANT HEAD     =           0.0000
     HEAD DEP BOUNDS     =     9041886.0000       HEAD DEP BOUNDS     =           0.2857
      STREAM LEAKAGE     =   382468992.0000        STREAM LEAKAGE     =          11.2509
        UZF RECHARGE     =       73223.9531          UZF RECHARGE     =           0.0000
               GW ET     =           0.0000                 GW ET     =           0.0000
     SURFACE LEAKAGE     =           0.0000       SURFACE LEAKAGE     =           0.0000
           AG WELLS      =           0.0000             AG WELLS      =           0.0000

                TOTAL IN =   926046848.0000                  TOTAL IN =          19.3195

          OUT:                                     OUT:
          ----                                     ----
             STORAGE     =   171208256.0000               STORAGE     =           8.1968
       CONSTANT HEAD     =           0.0000         CONSTANT HEAD     =           0.0000
     HEAD DEP BOUNDS     =     9260644.0000       HEAD DEP BOUNDS     =           0.2895
      STREAM LEAKAGE     =   335024608.0000        STREAM LEAKAGE     =          10.8332
        UZF RECHARGE     =           0.0000          UZF RECHARGE     =           0.0000
               GW ET     =     6666090.0000                 GW ET     =           0.0000
     SURFACE LEAKAGE     =           0.0000       SURFACE LEAKAGE     =           0.0000
           AG WELLS      =   403889344.0000             AG WELLS      =           0.0000

               TOTAL OUT =   926048896.0000                 TOTAL OUT =          19.3195

                IN - OUT =       -2048.0000                  IN - OUT =       5.7220E-06

     PERCENT DISCREPANCY =          -0.00         PERCENT DISCREPANCY =           0.00






         TIME SUMMARY AT END OF TIME STEP   30 IN STRESS PERIOD   13
                    SECONDS     MINUTES      HOURS       DAYS        YEARS
                    -----------------------------------------------------------
   TIME STEP LENGTH  87667.      1461.1      24.352      1.0147     2.77799E-03
 STRESS PERIOD TIME 2.63000E+06  43833.      730.56      30.440     8.33397E-02
         TOTAL TIME 3.16463E+07 5.27439E+05  8790.6      366.28      1.0028    
1
1
                            STRESS PERIOD NO.   14, LENGTH =   2630000.    
                            -----------------------------------------------

                              NUMBER OF TIME STEPS =    30

                               MULTIPLIER FOR DELT =     1.000

                            INITIAL TIME STEP SIZE =   87666.66    

 REUSING NON-PARAMETER GHB CELLS FROM LAST STRESS PERIOD

      2 GHB CELLS

 REUSING STREAM SEGMENT DATA FROM LAST STRESS PERIOD



            AREAL INFILTRATION RATE
 READING ON UNIT   19 WITH FORMAT: (FREE)              

            1           2           3           4           5           6           7           8           9          10
 ........................................................................................................................
   1   1.0000E-10  2.0000E-10   0.000       0.000       0.000       0.000       0.000       0.000       0.000       0.000    
   2   2.0000E-10  1.0000E-10  2.0000E-10   0.000       0.000      8.0000E-10  8.0000E-10  5.0000E-10   0.000       0.000    
   3    0.000      5.0000E-10  1.0000E-10  1.0000E-10  8.0000E-10  8.0000E-10  5.0000E-10  5.0000E-10   0.000       0.000    
   4   8.0000E-10  5.0000E-10  1.0000E-10  1.0000E-10  1.0000E-10  1.0000E-10  1.0000E-10  1.0000E-10  2.0000E-10   0.000    
   5   8.0000E-10  5.0000E-10  1.0000E-10  1.0000E-10  1.0000E-10  1.0000E-10  1.0000E-10  1.0000E-10  1.0000E-10  1.0000E-10
   6   8.0000E-10  5.0000E-10  5.0000E-10  2.0000E-10  2.0000E-10  1.0000E-10  1.0000E-10  1.0000E-10  1.0000E-10  5.0000E-10
   7   8.0000E-10  5.0000E-10  5.0000E-10  2.0000E-10  2.0000E-10  1.0000E-10  1.0000E-10  2.0000E-10  2.0000E-10   0.000    
   8    0.000      5.0000E-10  5.0000E-10  2.0000E-10  2.0000E-10  1.0000E-10  1.0000E-10  2.0000E-10  5.0000E-10   0.000    
   9    0.000      5.0000E-10  5.0000E-10  2.0000E-10  2.0000E-10  1.0000E-10  1.0000E-10  2.0000E-10  5.0000E-10   0.000    
  10    0.000      5.0000E-10  5.0000E-10  2.0000E-10  2.0000E-10  1.0000E-10  1.0000E-10  2.0000E-10  5.0000E-10  8.0000E-10
  11    0.000      1.0000E-10  1.0000E-10  1.0000E-10  1.0000E-10  1.0000E-10  1.0000E-10  2.0000E-10  5.0000E-10   0.000    
  12   1.0000E-10  1.0000E-10  1.0000E-10  1.0000E-10  1.0000E-10  1.0000E-10  1.0000E-10  1.0000E-10  2.0000E-10   0.000    
  13   1.0000E-10  1.0000E-10  2.0000E-10  2.0000E-10  2.0000E-10  2.0000E-10  2.0000E-10  1.0000E-10  1.0000E-10   0.000    
  14    0.000      2.0000E-10  5.0000E-10  5.0000E-10  5.0000E-10  5.0000E-10  5.0000E-10  2.0000E-10  1.0000E-10   0.000    
  15    0.000       0.000      8.0000E-10  8.0000E-10  8.0000E-10  8.0000E-10   0.000       0.000       0.000       0.000    

                  ET RATE =  5.000000E-10

 USING ET EXTINCTION DEPTH FROM PREVIOUS STRESS PERIOD. CURRENT PERIOD IS:      14

 USING EXTINCTION WATER CONTENT FROM PREVIOUS STRESS PERIOD. CURRENT PERIOD IS:      14

 USING AIR ENTRY PRESSURE FROM PREVIOUS STRESS PERIOD. CURRENT PERIOD IS:      14

 USING ROOT PRESSURE HEAD FROM PREVIOUS STRESS PERIOD. CURRENT PERIOD IS:      14

 USING ROOT ACTIVITY FROM PREVIOUS STRESS PERIOD. CURRENT PERIOD IS:      14

 PROCESSING AG STRESS PERIOD DATA

 READING AG STRESS PERIOD DATA

 READING IRRIGATION SEGMENT

 READING IRRIGATION WELL

 READING SUPPLEMENTAL WELL

 NO IRRPOND OR REUSING IRRPOND DATA FROM LAST STRESS PERIOD

 END PROCESSING AG STRESS PERIOD DATA OPTIONS
 
 SOLVING FOR HEAD 
                                                   Max.-Head-Change                         Max.-Flux-Residual
  Residual-Control   Outer-Iter.   Inner-Iter.     Column Row Layer    Maximum-Head-Change  Column Row Layer    Maximum-Flux-Residual          L2-NORM 
          0                 1           2             4    7     1       0.2173022590E-01       4    7    1         0.1142446343E+01      0.2621569322E+01
          0                 2           2             4    7     1      -0.2113768646E-02       4    7    1        -0.1142453231E+00      0.2621477931E+00
          0                 3           2             4    7     1       0.1439397086E-03       4    7    1         0.7997169542E-02      0.1834946791E-01
          0                 4           1             4    7     1      -0.5727496345E-05       4    7    1        -0.3270847335E-03      0.7504213183E-03

    ------------------------------------------------
       NWT REQUIRED            4 OUTER ITERATIONS 
       AND A TOTAL OF          7 INNER ITERATIONS.
    ------------------------------------------------

 NO OUTPUT CONTROL FOR STRESS PERIOD   14   TIME STEP    1
 
 SOLVING FOR HEAD 
                                                   Max.-Head-Change                         Max.-Flux-Residual
  Residual-Control   Outer-Iter.   Inner-Iter.     Column Row Layer    Maximum-Head-Change  Column Row Layer    Maximum-Flux-Residual          L2-NORM 
          0                 1           2             4    7     1       0.2147710379E-01       4    7    1         0.1129076982E+01      0.2603238923E+01
          0                 2           2             4    7     1      -0.2089146518E-02       4    7    1        -0.1129083702E+00      0.2602979293E+00
          0                 3           2             4    7     1       0.1422630355E-03       4    7    1         0.7903582966E-02      0.1821845585E-01
          0                 4           1             4    7     1      -0.5660780016E-05       4    7    1        -0.3232570309E-03      0.7449694039E-03

    ------------------------------------------------
       NWT REQUIRED            4 OUTER ITERATIONS 
       AND A TOTAL OF          7 INNER ITERATIONS.
    ------------------------------------------------

 NO OUTPUT CONTROL FOR STRESS PERIOD   14   TIME STEP    2
 
 SOLVING FOR HEAD 
                                                   Max.-Head-Change                         Max.-Flux-Residual
  Residual-Control   Outer-Iter.   Inner-Iter.     Column Row Layer    Maximum-Head-Change  Column Row Layer    Maximum-Flux-Residual          L2-NORM 
          0                 1           2             4    7     1       0.2122806074E-01       4    7    1         0.1115923510E+01      0.2578147028E+01
          0                 2           2             4    7     1      -0.2064921177E-02       4    7    1        -0.1115930067E+00      0.2577914007E+00
          0                 3           2             4    7     1       0.1406133820E-03       4    7    1         0.7811507631E-02      0.1804329958E-01
          0                 4           1             4    7     1      -0.5595138748E-05       4    7    1        -0.3194911455E-03      0.7378513175E-03

    ------------------------------------------------
       NWT REQUIRED            4 OUTER ITERATIONS 
       AND A TOTAL OF          7 INNER ITERATIONS.
    ------------------------------------------------

 NO OUTPUT CONTROL FOR STRESS PERIOD   14   TIME STEP    3
 
 SOLVING FOR HEAD 
                                                   Max.-Head-Change                         Max.-Flux-Residual
  Residual-Control   Outer-Iter.   Inner-Iter.     Column Row Layer    Maximum-Head-Change  Column Row Layer    Maximum-Flux-Residual          L2-NORM 
          0                 1           2             4    7     1       0.2098300720E-01       4    7    1         0.1102981530E+01      0.2553461742E+01
          0                 2           2             4    7     1      -0.2041083915E-02       4    7    1        -0.1102987928E+00      0.2553250938E+00
          0                 3           2             4    7     1       0.1389901551E-03       4    7    1         0.7720912776E-02      0.1787091511E-01
          0                 4           1             4    7     1      -0.5530548711E-05       4    7    1        -0.3157858034E-03      0.7308886919E-03

    ------------------------------------------------
       NWT REQUIRED            4 OUTER ITERATIONS 
       AND A TOTAL OF          7 INNER ITERATIONS.
    ------------------------------------------------

 NO OUTPUT CONTROL FOR STRESS PERIOD   14   TIME STEP    4
 
 SOLVING FOR HEAD 
                                                   Max.-Head-Change                         Max.-Flux-Residual
  Residual-Control   Outer-Iter.   Inner-Iter.     Column Row Layer    Maximum-Head-Change  Column Row Layer    Maximum-Flux-Residual          L2-NORM 
          0                 1           2             4    7     1       0.2074185997E-01       4    7    1         0.1090246400E+01      0.2529170488E+01
          0                 2           2             4    7     1      -0.2017626636E-02       4    7    1        -0.1090252643E+00      0.2528979551E+00
          0                 3           2             4    7     1       0.1373928037E-03       4    7    1         0.7631765895E-02      0.1770110231E-01
          0                 4           1             4    7     1      -0.5466988835E-05       4    7    1        -0.3121396967E-03      0.7238497599E-03

    ------------------------------------------------
       NWT REQUIRED            4 OUTER ITERATIONS 
       AND A TOTAL OF          7 INNER ITERATIONS.
    ------------------------------------------------

 NO OUTPUT CONTROL FOR STRESS PERIOD   14   TIME STEP    5
 
 SOLVING FOR HEAD 
                                                   Max.-Head-Change                         Max.-Flux-Residual
  Residual-Control   Outer-Iter.   Inner-Iter.     Column Row Layer    Maximum-Head-Change  Column Row Layer    Maximum-Flux-Residual          L2-NORM 
          0                 1           2             4    7     1       0.2050466968E-01       4    7    1         0.1077721154E+01      0.2505263725E+01
          0                 2           2             4    7     1      -0.1994554265E-02       4    7    1        -0.1077727246E+00      0.2505090360E+00
          0                 3           2             4    7     1       0.1358216628E-03       4    7    1         0.7544088214E-02      0.1753407735E-01
          0                 4           1             4    7     1      -0.5404471670E-05       4    7    1        -0.3085536639E-03      0.7170694091E-03

    ------------------------------------------------
       NWT REQUIRED            4 OUTER ITERATIONS 
       AND A TOTAL OF          7 INNER ITERATIONS.
    ------------------------------------------------

 NO OUTPUT CONTROL FOR STRESS PERIOD   14   TIME STEP    6
 
 SOLVING FOR HEAD 
                                                   Max.-Head-Change                         Max.-Flux-Residual
  Residual-Control   Outer-Iter.   Inner-Iter.     Column Row Layer    Maximum-Head-Change  Column Row Layer    Maximum-Flux-Residual          L2-NORM 
          0                 1           2             4    7     1       0.2027135425E-01       4    7    1         0.1065401068E+01      0.2481728774E+01
          0                 2           2             4    7     1      -0.1971858819E-02       4    7    1        -0.1065407014E+00      0.2481570779E+00
          0                 3           2             4    7     1       0.1342761890E-03       4    7    1         0.7457846688E-02      0.1736953923E-01
          0                 4           1             4    7     1      -0.5342975571E-05       4    7    1        -0.3050263717E-03      0.7103036263E-03

    ------------------------------------------------
       NWT REQUIRED            4 OUTER ITERATIONS 
       AND A TOTAL OF          7 INNER ITERATIONS.
    ------------------------------------------------

 NO OUTPUT CONTROL FOR STRESS PERIOD   14   TIME STEP    7
 
 SOLVING FOR HEAD 
                                                   Max.-Head-Change                         Max.-Flux-Residual
  Residual-Control   Outer-Iter.   Inner-Iter.     Column Row Layer    Maximum-Head-Change  Column Row Layer    Maximum-Flux-Residual          L2-NORM 
          0                 1           2             4    7     1       0.2004169358E-01       4    7    1         0.1053274539E+01      0.2458555365E+01
          0                 2           2             4    7     1      -0.1949518887E-02       4    7    1        -0.1053280342E+00      0.2458411000E+00
          0                 3           2             4    7     1       0.1327549247E-03       4    7    1         0.7372960084E-02      0.1720755160E-01
          0                 4           1             4    7     1      -0.5282443206E-05       4    7    1        -0.3015545201E-03      0.7037125928E-03

    ------------------------------------------------
       NWT REQUIRED            4 OUTER ITERATIONS 
       AND A TOTAL OF          7 INNER ITERATIONS.
    ------------------------------------------------

 NO OUTPUT CONTROL FOR STRESS PERIOD   14   TIME STEP    8
 
 SOLVING FOR HEAD 
                                                   Max.-Head-Change                         Max.-Flux-Residual
  Residual-Control   Outer-Iter.   Inner-Iter.     Column Row Layer    Maximum-Head-Change  Column Row Layer    Maximum-Flux-Residual          L2-NORM 
          0                 1           2             4    7     1       0.1981560911E-01       4    7    1         0.1041337503E+01      0.2435731807E+01
          0                 2           2             4    7     1      -0.1927526827E-02       4    7    1        -0.1041343167E+00      0.2435599769E+00
          0                 3           2             4    7     1       0.1312573490E-03       4    7    1         0.7289399953E-02      0.1704801676E-01
          0                 4           1             4    7     1      -0.5222853160E-05       4    7    1        -0.2981369041E-03      0.6971827145E-03

    ------------------------------------------------
       NWT REQUIRED            4 OUTER ITERATIONS 
       AND A TOTAL OF          7 INNER ITERATIONS.
    ------------------------------------------------

 NO OUTPUT CONTROL FOR STRESS PERIOD   14   TIME STEP    9
 
 SOLVING FOR HEAD 
                                                   Max.-Head-Change                         Max.-Flux-Residual
  Residual-Control   Outer-Iter.   Inner-Iter.     Column Row Layer    Maximum-Head-Change  Column Row Layer    Maximum-Flux-Residual          L2-NORM 
          0                 1           2             4    7     1       0.1959316389E-01       4    7    1         0.1029593235E+01      0.2413246230E+01
          0                 2           2             4    7     1      -0.1905888774E-02       4    7    1        -0.1029598765E+00      0.2413124973E+00
          0                 3           2             4    7     1       0.1297838797E-03       4    7    1         0.7207189232E-02      0.1689078135E-01
          0                 4           1             4    7     1      -0.5164222472E-05       4    7    1        -0.2947744824E-03      0.6908095827E-03

    ------------------------------------------------
       NWT REQUIRED            4 OUTER ITERATIONS 
       AND A TOTAL OF          7 INNER ITERATIONS.
    ------------------------------------------------

 NO OUTPUT CONTROL FOR STRESS PERIOD   14   TIME STEP   10
 
 SOLVING FOR HEAD 
                                                   Max.-Head-Change                         Max.-Flux-Residual
  Residual-Control   Outer-Iter.   Inner-Iter.     Column Row Layer    Maximum-Head-Change  Column Row Layer    Maximum-Flux-Residual          L2-NORM 
          0                 1           2             4    7     1       0.1937427969E-01       4    7    1         0.1018037658E+01      0.2391091214E+01
          0                 2           2             4    7     1      -0.1884597116E-02       4    7    1        -0.1018043056E+00      0.2390978725E+00
          0                 3           2             4    7     1       0.1283339988E-03       4    7    1         0.7126299364E-02      0.1673578287E-01
          0                 4           1             4    7     1      -0.5106530650E-05       4    7    1        -0.2914660820E-03      0.6844466602E-03

    ------------------------------------------------
       NWT REQUIRED            4 OUTER ITERATIONS 
       AND A TOTAL OF          7 INNER ITERATIONS.
    ------------------------------------------------

 NO OUTPUT CONTROL FOR STRESS PERIOD   14   TIME STEP   11
 
 SOLVING FOR HEAD 
                                                   Max.-Head-Change                         Max.-Flux-Residual
  Residual-Control   Outer-Iter.   Inner-Iter.     Column Row Layer    Maximum-Head-Change  Column Row Layer    Maximum-Flux-Residual          L2-NORM 
          0                 1           2             4    7     1       0.1915887741E-01       4    7    1         0.1006666714E+01      0.2369264996E+01
          0                 2           2             4    7     1      -0.1863644158E-02       4    7    1        -0.1006671984E+00      0.2369161315E+00
          0                 3           2             4    7     1       0.1269071814E-03       4    7    1         0.7046701939E-02      0.1658319403E-01
          0                 4           1             4    7     1      -0.5049755704E-05       4    7    1        -0.2882105259E-03      0.6782291186E-03

    ------------------------------------------------
       NWT REQUIRED            4 OUTER ITERATIONS 
       AND A TOTAL OF          7 INNER ITERATIONS.
    ------------------------------------------------

 NO OUTPUT CONTROL FOR STRESS PERIOD   14   TIME STEP   12
 
 SOLVING FOR HEAD 
                                                   Max.-Head-Change                         Max.-Flux-Residual
  Residual-Control   Outer-Iter.   Inner-Iter.     Column Row Layer    Maximum-Head-Change  Column Row Layer    Maximum-Flux-Residual          L2-NORM 
          0                 1           2             4    7     1       0.1894674947E-01       4    7    1         0.9954689503E+00      0.2347747896E+01
          0                 2           2             4    7     1      -0.1843009710E-02       4    7    1        -0.9954740962E-01      0.2347652542E+00
          0                 3           2             4    7     1       0.1255020541E-03       4    7    1         0.6968316810E-02      0.1643265619E-01
          0                 4           1             4    7     1      -0.4993844676E-05       4    7    1        -0.2850045785E-03      0.6720047046E-03

    ------------------------------------------------
       NWT REQUIRED            4 OUTER ITERATIONS 
       AND A TOTAL OF          7 INNER ITERATIONS.
    ------------------------------------------------

 NO OUTPUT CONTROL FOR STRESS PERIOD   14   TIME STEP   13
 
 SOLVING FOR HEAD 
                                                   Max.-Head-Change                         Max.-Flux-Residual
  Residual-Control   Outer-Iter.   Inner-Iter.     Column Row Layer    Maximum-Head-Change  Column Row Layer    Maximum-Flux-Residual          L2-NORM 
          0                 1           2             4    7     1       0.1873796292E-01       4    7    1         0.9844483071E+00      0.2326542311E+01
          0                 2           2             4    7     1      -0.1822700744E-02       4    7    1        -0.9844533317E-01      0.2326749192E+00
          0                 3           1             4    7     1       0.1241190930E-03       4    7    1         0.6891171542E-02      0.1628637186E-01
          0                 4           1             4    7     1      -0.4938817597E-05       4    7    1        -0.2818493376E-03      0.6660582962E-03

    ------------------------------------------------
       NWT REQUIRED            4 OUTER ITERATIONS 
       AND A TOTAL OF          6 INNER ITERATIONS.
    ------------------------------------------------

 NO OUTPUT CONTROL FOR STRESS PERIOD   14   TIME STEP   14
 
 SOLVING FOR HEAD 
                                                   Max.-Head-Change                         Max.-Flux-Residual
  Residual-Control   Outer-Iter.   Inner-Iter.     Column Row Layer    Maximum-Head-Change  Column Row Layer    Maximum-Flux-Residual          L2-NORM 
          0                 1           2             4    7     1       0.1853244407E-01       4    7    1         0.9736008854E+00      0.2305608350E+01
          0                 2           2             4    7     1      -0.1802708738E-02       4    7    1        -0.9736057925E-01      0.2305526374E+00
          0                 3           1             4    7     1       0.1227577131E-03       4    7    1         0.6815238855E-02      0.1613794841E-01
          0                 4           1             4    7     1      -0.4884646723E-05       4    7    1        -0.2787436645E-03      0.6600036891E-03

    ------------------------------------------------
       NWT REQUIRED            4 OUTER ITERATIONS 
       AND A TOTAL OF          6 INNER ITERATIONS.
    ------------------------------------------------

 NO OUTPUT CONTROL FOR STRESS PERIOD   14   TIME STEP   15
 
 SOLVING FOR HEAD 
                                                   Max.-Head-Change                         Max.-Flux-Residual
  Residual-Control   Outer-Iter.   Inner-Iter.     Column Row Layer    Maximum-Head-Change  Column Row Layer    Maximum-Flux-Residual          L2-NORM 
          0                 1           2             4    7     1       0.1833012720E-01       4    7    1         0.9629229368E+00      0.2284956431E+01
          0                 2           2             4    7     1      -0.1783028654E-02       4    7    1        -0.9629277292E-01      0.2284878570E+00
          0                 3           1             4    7     1       0.1214175741E-03       4    7    1         0.6740492482E-02      0.1599340242E-01
          0                 4           1             4    7     1      -0.4831321575E-05       4    7    1        -0.2756865526E-03      0.6540981883E-03

    ------------------------------------------------
       NWT REQUIRED            4 OUTER ITERATIONS 
       AND A TOTAL OF          6 INNER ITERATIONS.
    ------------------------------------------------

 NO OUTPUT CONTROL FOR STRESS PERIOD   14   TIME STEP   16
 
 SOLVING FOR HEAD 
                                                   Max.-Head-Change                         Max.-Flux-Residual
  Residual-Control   Outer-Iter.   Inner-Iter.     Column Row Layer    Maximum-Head-Change  Column Row Layer    Maximum-Flux-Residual          L2-NORM 
          0                 1           2             4    7     1       0.1813093991E-01       4    7    1         0.9524109816E+00      0.2264586581E+01
          0                 2           2             4    7     1      -0.1763652996E-02       4    7    1        -0.9524156624E-01      0.2264514377E+00
          0                 3           1             4    7     1       0.1200981648E-03       4    7    1         0.6666908080E-02      0.1585108657E-01
          0                 4           1             4    7     1      -0.4778820742E-05       4    7    1        -0.2726769299E-03      0.6484962635E-03

    ------------------------------------------------
       NWT REQUIRED            4 OUTER ITERATIONS 
       AND A TOTAL OF          6 INNER ITERATIONS.
    ------------------------------------------------

 NO OUTPUT CONTROL FOR STRESS PERIOD   14   TIME STEP   17
 
 SOLVING FOR HEAD 
                                                   Max.-Head-Change                         Max.-Flux-Residual
  Residual-Control   Outer-Iter.   Inner-Iter.     Column Row Layer    Maximum-Head-Change  Column Row Layer    Maximum-Flux-Residual          L2-NORM 
          0                 1           2             4    7     1       0.1793481703E-01       4    7    1         0.9420612899E+00      0.2244508929E+01
          0                 2           2             4    7     1      -0.1744575427E-02       4    7    1        -0.9420658621E-01      0.2244440902E+00
          0                 3           1             4    7     1       0.1187990552E-03       4    7    1         0.6594459563E-02      0.1571046316E-01
          0                 4           1             4    7     1      -0.4727128219E-05       4    7    1        -0.2697138025E-03      0.6425304671E-03

    ------------------------------------------------
       NWT REQUIRED            4 OUTER ITERATIONS 
       AND A TOTAL OF          6 INNER ITERATIONS.
    ------------------------------------------------

 NO OUTPUT CONTROL FOR STRESS PERIOD   14   TIME STEP   18
 
 SOLVING FOR HEAD 
                                                   Max.-Head-Change                         Max.-Flux-Residual
  Residual-Control   Outer-Iter.   Inner-Iter.     Column Row Layer    Maximum-Head-Change  Column Row Layer    Maximum-Flux-Residual          L2-NORM 
          0                 1           2             4    7     1       0.1774182623E-01       4    7    1         0.9318778361E+00      0.2224700968E+01
          0                 2           2             4    7     1      -0.1725802528E-02       4    7    1        -0.9318823028E-01      0.2224636993E+00
          0                 3           1             4    7     1       0.1175206917E-03       4    7    1         0.6523174714E-02      0.1557185763E-01
          0                 4           1             4    7     1      -0.4676260931E-05       4    7    1        -0.2667982428E-03      0.6369044376E-03

    ------------------------------------------------
       NWT REQUIRED            4 OUTER ITERATIONS 
       AND A TOTAL OF          6 INNER ITERATIONS.
    ------------------------------------------------

 NO OUTPUT CONTROL FOR STRESS PERIOD   14   TIME STEP   19
 
 SOLVING FOR HEAD 
                                                   Max.-Head-Change                         Max.-Flux-Residual
  Residual-Control   Outer-Iter.   Inner-Iter.     Column Row Layer    Maximum-Head-Change  Column Row Layer    Maximum-Flux-Residual          L2-NORM 
          0                 1           2             4    7     1       0.1755163290E-01       4    7    1         0.9218420701E+00      0.2205170991E+01
          0                 2           2             4    7     1      -0.1707301751E-02       4    7    1        -0.9218464338E-01      0.2205110490E+00
          0                 3           1             4    7     1       0.1162608586E-03       4    7    1         0.6452923695E-02      0.1543521204E-01
          0                 4           1             4    7     1      -0.4626130574E-05       4    7    1        -0.2639249499E-03      0.6313128014E-03

    ------------------------------------------------
       NWT REQUIRED            4 OUTER ITERATIONS 
       AND A TOTAL OF          6 INNER ITERATIONS.
    ------------------------------------------------

 NO OUTPUT CONTROL FOR STRESS PERIOD   14   TIME STEP   20
 
 SOLVING FOR HEAD 
                                                   Max.-Head-Change                         Max.-Flux-Residual
  Residual-Control   Outer-Iter.   Inner-Iter.     Column Row Layer    Maximum-Head-Change  Column Row Layer    Maximum-Flux-Residual          L2-NORM 
          0                 1           2             4    7     1       0.1736431538E-01       4    7    1         0.9119587011E+00      0.2185896935E+01
          0                 2           2             4    7     1      -0.1689080716E-02       4    7    1        -0.9119629644E-01      0.2185839758E+00
          0                 3           1             4    7     1       0.1150200756E-03       4    7    1         0.6383739482E-02      0.1530034205E-01
          0                 4           1             4    7     1      -0.4576758909E-05       4    7    1        -0.2610953309E-03      0.6257672029E-03

    ------------------------------------------------
       NWT REQUIRED            4 OUTER ITERATIONS 
       AND A TOTAL OF          6 INNER ITERATIONS.
    ------------------------------------------------

 NO OUTPUT CONTROL FOR STRESS PERIOD   14   TIME STEP   21
 
 SOLVING FOR HEAD 
                                                   Max.-Head-Change                         Max.-Flux-Residual
  Residual-Control   Outer-Iter.   Inner-Iter.     Column Row Layer    Maximum-Head-Change  Column Row Layer    Maximum-Flux-Residual          L2-NORM 
          0                 1           2             4    7     1       0.1717994760E-01       4    7    1         0.9022317917E+00      0.2166887653E+01
          0                 2           2             4    7     1      -0.1671146613E-02       4    7    1        -0.9022359575E-01      0.2166829623E+00
          0                 3           1             4    7     1       0.1137988308E-03       4    7    1         0.6315650488E-02      0.1516729456E-01
          0                 4           1             4    7     1      -0.4528164585E-05       4    7    1        -0.2583104840E-03      0.6203002188E-03

    ------------------------------------------------
       NWT REQUIRED            4 OUTER ITERATIONS 
       AND A TOTAL OF          6 INNER ITERATIONS.
    ------------------------------------------------

 NO OUTPUT CONTROL FOR STRESS PERIOD   14   TIME STEP   22
 
 SOLVING FOR HEAD 
                                                   Max.-Head-Change                         Max.-Flux-Residual
  Residual-Control   Outer-Iter.   Inner-Iter.     Column Row Layer    Maximum-Head-Change  Column Row Layer    Maximum-Flux-Residual          L2-NORM 
          0                 1           2             4    7     1       0.1699832954E-01       4    7    1         0.8926504680E+00      0.2148132392E+01
          0                 2           2             4    7     1      -0.1653479988E-02       4    7    1        -0.8926545387E-01      0.2148080770E+00
          0                 3           1             4    7     1       0.1125958004E-03       4    7    1         0.6248580618E-02      0.1503607161E-01
          0                 4           1             4    7     1      -0.4480294528E-05       4    7    1        -0.2555673123E-03      0.6149555296E-03

    ------------------------------------------------
       NWT REQUIRED            4 OUTER ITERATIONS 
       AND A TOTAL OF          6 INNER ITERATIONS.
    ------------------------------------------------

 NO OUTPUT CONTROL FOR STRESS PERIOD   14   TIME STEP   23
 
 SOLVING FOR HEAD 
                                                   Max.-Head-Change                         Max.-Flux-Residual
  Residual-Control   Outer-Iter.   Inner-Iter.     Column Row Layer    Maximum-Head-Change  Column Row Layer    Maximum-Flux-Residual          L2-NORM 
          0                 1           2             4    7     1       0.1681940594E-01       4    7    1         0.8832117134E+00      0.2129634593E+01
          0                 2           2             4    7     1      -0.1636075463E-02       4    7    1        -0.8832156915E-01      0.2129585459E+00
          0                 3           1             4    7     1       0.1114106184E-03       4    7    1         0.6182508743E-02      0.1490663893E-01
          0                 4           1             4    7     1      -0.4433135385E-05       4    7    1        -0.2528649861E-03      0.6096453578E-03

    ------------------------------------------------
       NWT REQUIRED            4 OUTER ITERATIONS 
       AND A TOTAL OF          6 INNER ITERATIONS.
    ------------------------------------------------

 NO OUTPUT CONTROL FOR STRESS PERIOD   14   TIME STEP   24
 
 SOLVING FOR HEAD 
                                                   Max.-Head-Change                         Max.-Flux-Residual
  Residual-Control   Outer-Iter.   Inner-Iter.     Column Row Layer    Maximum-Head-Change  Column Row Layer    Maximum-Flux-Residual          L2-NORM 
          0                 1           2             4    7     1       0.1664312360E-01       4    7    1         0.8739126619E+00      0.2111377047E+01
          0                 2           2             4    7     1      -0.1618927865E-02       4    7    1        -0.8739165498E-01      0.2111330102E+00
          0                 3           1             4    7     1       0.1102429320E-03       4    7    1         0.6117414823E-02      0.1477886258E-01
          0                 4           1             4    7     1      -0.4386672188E-05       4    7    1        -0.2502026418E-03      0.6044216258E-03

    ------------------------------------------------
       NWT REQUIRED            4 OUTER ITERATIONS 
       AND A TOTAL OF          6 INNER ITERATIONS.
    ------------------------------------------------

 NO OUTPUT CONTROL FOR STRESS PERIOD   14   TIME STEP   25
 
 SOLVING FOR HEAD 
                                                   Max.-Head-Change                         Max.-Flux-Residual
  Residual-Control   Outer-Iter.   Inner-Iter.     Column Row Layer    Maximum-Head-Change  Column Row Layer    Maximum-Flux-Residual          L2-NORM 
          0                 1           2             4    7     1       0.1646955918E-01       4    7    1         0.8647579097E+00      0.2093361770E+01
          0                 2           2             4    7     1      -0.1602044649E-02       4    7    1        -0.8647617097E-01      0.2093317069E+00
          0                 3           1             4    7     1       0.1090932485E-03       4    7    1         0.6053330987E-02      0.1465281450E-01
          0                 4           1             4    7     1      -0.4340924855E-05       4    7    1        -0.2475816029E-03      0.5992793334E-03

    ------------------------------------------------
       NWT REQUIRED            4 OUTER ITERATIONS 
       AND A TOTAL OF          6 INNER ITERATIONS.
    ------------------------------------------------

 NO OUTPUT CONTROL FOR STRESS PERIOD   14   TIME STEP   26
 
 SOLVING FOR HEAD 
                                                   Max.-Head-Change                         Max.-Flux-Residual
  Residual-Control   Outer-Iter.   Inner-Iter.     Column Row Layer    Maximum-Head-Change  Column Row Layer    Maximum-Flux-Residual          L2-NORM 
          0                 1           2             4    7     1       0.1629865627E-01       4    7    1         0.8557440778E+00      0.2075592455E+01
          0                 2           2             4    7     1      -0.1585420329E-02       4    7    1        -0.8557477923E-01      0.2075549137E+00
          0                 3           1             4    7     1       0.1079611954E-03       4    7    1         0.5990233616E-02      0.1452843547E-01
          0                 4           1             4    7     1      -0.4295879569E-05       4    7    1        -0.2450009245E-03      0.5941964534E-03

    ------------------------------------------------
       NWT REQUIRED            4 OUTER ITERATIONS 
       AND A TOTAL OF          6 INNER ITERATIONS.
    ------------------------------------------------

 NO OUTPUT CONTROL FOR STRESS PERIOD   14   TIME STEP   27
 
 SOLVING FOR HEAD 
                                                   Max.-Head-Change                         Max.-Flux-Residual
  Residual-Control   Outer-Iter.   Inner-Iter.     Column Row Layer    Maximum-Head-Change  Column Row Layer    Maximum-Flux-Residual          L2-NORM 
          0                 1           2             4    7     1       0.1613008512E-01       4    7    1         0.8468535319E+00      0.2058037700E+01
          0                 2           2             4    7     1      -0.1569022830E-02       4    7    1        -0.8468571630E-01      0.2057994524E+00
          0                 3           1             4    7     1       0.1068445875E-03       4    7    1         0.5927999282E-02      0.1440558150E-01
          0                 4           1             4    7     1      -0.4251448374E-05       4    7    1        -0.2424555082E-03      0.5891574154E-03

    ------------------------------------------------
       NWT REQUIRED            4 OUTER ITERATIONS 
       AND A TOTAL OF          6 INNER ITERATIONS.
    ------------------------------------------------

 NO OUTPUT CONTROL FOR STRESS PERIOD   14   TIME STEP   28
 
 SOLVING FOR HEAD 
                                                   Max.-Head-Change                         Max.-Flux-Residual
  Residual-Control   Outer-Iter.   Inner-Iter.     Column Row Layer    Maximum-Head-Change  Column Row Layer    Maximum-Flux-Residual          L2-NORM 
          0                 1           2             4    7     1       0.1596421352E-01       4    7    1         0.8381059489E+00      0.2040730080E+01
          0                 2           2             4    7     1      -0.1552887925E-02       4    7    1        -0.8381094988E-01      0.2040690299E+00
          0                 3           1             4    7     1       0.1057458611E-03       4    7    1         0.5866765666E-02      0.1428445201E-01
          0                 4           1             4    7     1      -0.4207728783E-05       4    7    1        -0.2399510447E-03      0.5842210304E-03

    ------------------------------------------------
       NWT REQUIRED            4 OUTER ITERATIONS 
       AND A TOTAL OF          6 INNER ITERATIONS.
    ------------------------------------------------

 NO OUTPUT CONTROL FOR STRESS PERIOD   14   TIME STEP   29
 
 SOLVING FOR HEAD 
                                                   Max.-Head-Change                         Max.-Flux-Residual
  Residual-Control   Outer-Iter.   Inner-Iter.     Column Row Layer    Maximum-Head-Change  Column Row Layer    Maximum-Flux-Residual          L2-NORM 
          0                 1           2             4    7     1       0.1580057090E-01       4    7    1         0.8294762675E+00      0.2023635879E+01
          0                 2           2             4    7     1      -0.1536969844E-02       4    7    1        -0.8294797383E-01      0.2023597661E+00
          0                 3           1             4    7     1       0.1046619002E-03       4    7    1         0.5806357397E-02      0.1416481538E-01
          0                 4           1             4    7     1      -0.4164597034E-05       4    7    1        -0.2374803546E-03      0.5793675372E-03

    ------------------------------------------------
       NWT REQUIRED            4 OUTER ITERATIONS 
       AND A TOTAL OF          6 INNER ITERATIONS.
    ------------------------------------------------

 NO OUTPUT CONTROL FOR STRESS PERIOD   14   TIME STEP   30



 STREAM LISTING     PERIOD     14   STEP       30

 LAYER ROW COL. STREAM  RCH.  FLOW INTO     FLOW TO   FLOW OUT OF   OVRLND.     DIRECT     STREAM       STREAM     STREAM     STREAM   STREAMBED  STREAMBED
                SEG.NO.  NO.  STRM. RCH.    AQUIFER    STRM. RCH.    RUNOFF     PRECIP       ET          HEAD       DEPTH      WIDTH   CONDCTNC.   GRADIENT

   1    1    1     1     1    1.4250E+01  1.8169E-01   1.4069E+01  0.000E+00  0.000E+00  0.000E+00  1.09404E+03  9.953E-01  1.011E+01  4.548E-02  1.332E+00
   1    2    2     1     2    1.4069E+01  2.7999E-01   1.3789E+01  0.000E+00  0.000E+00  0.000E+00  1.08905E+03  9.906E-01  1.002E+01  7.016E-02  1.330E+00
   1    3    3     1     3    1.3789E+01  2.3745E-01   1.3551E+01  0.000E+00  0.000E+00  0.000E+00  1.08340E+03  9.853E-01  9.930E+00  5.958E-02  1.328E+00
   1    3    4     1     4    1.3551E+01  2.1755E-01   1.3334E+01  0.000E+00  0.000E+00  0.000E+00  1.07839E+03  9.805E-01  9.848E+00  5.465E-02  1.327E+00
   1    4    5     2     1    1.1334E+01  2.9214E-01   1.1041E+01  0.000E+00  0.000E+00  0.000E+00  1.07268E+03  7.454E-01  1.200E+01  7.800E-02  1.248E+00
   1    5    6     2     2    1.1041E+01  2.2410E-01   1.0817E+01  0.000E+00  0.000E+00  0.000E+00  1.06724E+03  7.350E-01  1.200E+01  6.000E-02  1.245E+00
   1    6    6     2     3    1.0817E+01  2.2356E-01   1.0594E+01  0.000E+00  0.000E+00  0.000E+00  1.06252E+03  7.260E-01  1.200E+01  6.000E-02  1.242E+00
   1    7    6     2     4    1.0594E+01  2.2301E-01   1.0371E+01  0.000E+00  0.000E+00  0.000E+00  1.05779E+03  7.168E-01  1.200E+01  6.000E-02  1.239E+00
   1    8    6     2     5    1.0371E+01  2.2246E-01   1.0148E+01  0.000E+00  0.000E+00  0.000E+00  1.05307E+03  7.077E-01  1.200E+01  6.000E-02  1.236E+00
   1    3    5     3     1    2.0000E+00  2.8252E-01   1.7175E+00  0.000E+00  0.000E+00  0.000E+00  1.07555E+03  1.909E+00  9.636E+00  7.227E-02  1.955E+00
   1    3    6     3     2    1.7175E+00  2.4905E-01   1.4684E+00  0.000E+00  0.000E+00  0.000E+00  1.07264E+03  1.727E+00  8.909E+00  6.682E-02  1.864E+00
   1    3    7     3     3    1.4684E+00  1.9718E-01   1.2712E+00  0.000E+00  0.000E+00  0.000E+00  1.06987E+03  1.555E+00  8.218E+00  5.547E-02  1.777E+00
   1    4    8     3     4    1.2712E+00  2.2567E-01   1.0456E+00  0.000E+00  0.000E+00  0.000E+00  1.06682E+03  1.364E+00  7.455E+00  6.709E-02  1.682E+00
   1    5    8     3     5    1.0456E+00  1.5790E-01   8.8768E-01  0.000E+00  0.000E+00  0.000E+00  1.06362E+03  1.164E+00  6.655E+00  4.991E-02  1.582E+00
   1    6    8     3     6    8.8768E-01  5.5980E-02   8.3170E-01  0.000E+00  0.000E+00  0.000E+00  1.06158E+03  1.036E+00  6.145E+00  1.844E-02  1.518E+00
   1    5   10     4     1    1.0000E+01  9.0919E-02   9.9091E+00  0.000E+00  0.000E+00  0.000E+00  1.07836E+03  6.368E-01  1.000E+01  2.500E-02  1.212E+00
   1    5    9     4     2    9.9091E+00  1.8158E-01   9.7275E+00  0.000E+00  0.000E+00  0.000E+00  1.07154E+03  6.315E-01  1.000E+01  5.000E-02  1.211E+00
   1    6    8     4     3    9.7275E+00  1.2689E-01   9.6006E+00  0.000E+00  0.000E+00  0.000E+00  1.06381E+03  6.256E-01  1.000E+01  3.500E-02  1.209E+00
   1    6    8     5     1    1.0432E+01  2.2686E-01   1.0205E+01  0.000E+00  0.000E+00  0.000E+00  1.05868E+03  6.790E-01  1.542E+01  6.166E-02  1.226E+00
   1    7    7     5     2    1.0205E+01  2.7894E-01   9.9265E+00  0.000E+00  0.000E+00  0.000E+00  1.05417E+03  6.732E-01  1.519E+01  7.594E-02  1.224E+00
   1    8    7     5     3    9.9265E+00  1.9221E-01   9.7343E+00  0.000E+00  0.000E+00  0.000E+00  1.04992E+03  6.676E-01  1.497E+01  5.241E-02  1.223E+00
   1    8    6     5     4    9.7343E+00  1.3577E-01   9.5985E+00  0.000E+00  0.000E+00  0.000E+00  1.04691E+03  6.637E-01  1.482E+01  3.706E-02  1.221E+00
   1    9    6     6     1    1.9747E+01  2.4336E-01   1.9503E+01  0.000E+00  0.000E+00  0.000E+00  1.04378E+03  1.056E+00  1.200E+01  6.000E-02  1.352E+00
   1   10    7     6     2    1.9503E+01  2.4289E-01   1.9261E+01  0.000E+00  0.000E+00  0.000E+00  1.03923E+03  1.048E+00  1.200E+01  6.000E-02  1.349E+00
   1   11    7     6     3    1.9261E+01  2.4241E-01   1.9018E+01  0.000E+00  0.000E+00  0.000E+00  1.03468E+03  1.040E+00  1.200E+01  6.000E-02  1.347E+00
   1   12    7     6     4    1.9018E+01  2.4194E-01   1.8776E+01  0.000E+00  0.000E+00  0.000E+00  1.03012E+03  1.032E+00  1.200E+01  6.000E-02  1.344E+00
   1   13    7     6     5    1.8776E+01 -3.4202E-02   1.8810E+01  0.000E+00  0.000E+00  0.000E+00  1.02694E+03  1.029E+00  1.200E+01  2.400E-01 -4.750E-02
   1   14    9     7     1    1.5000E+02  1.3344E+00   1.4867E+02  0.000E+00  0.000E+00  0.000E+00  1.03987E+03  2.288E+00  5.529E+01  5.593E-01  7.953E-01
   1   13    8     7     2    1.4867E+02  1.8232E+00   1.4684E+02  0.000E+00  0.000E+00  0.000E+00  1.03478E+03  2.279E+00  5.526E+01  6.148E-01  9.885E-01
   1   13    7     7     3    1.4684E+02  1.4573E+00   1.4539E+02  0.000E+00  0.000E+00  0.000E+00  1.02969E+03  2.271E+00  5.522E+01  5.585E-01  8.698E-01
   1   13    6     8     1    1.6420E+02  8.8350E-01   1.6331E+02  0.000E+00  0.000E+00  0.000E+00  1.02479E+03  2.911E+00  4.221E+01  4.301E-01  6.847E-01
   1   13    5     8     2    1.6331E+02  1.5457E-01   1.6316E+02  0.000E+00  0.000E+00  0.000E+00  1.01853E+03  2.908E+00  4.216E+01  4.296E-01  1.199E-01
   1   13    4     8     3    1.6316E+02 -2.4787E+00   1.6564E+02  0.000E+00  0.000E+00  0.000E+00  1.01229E+03  2.915E+00  4.227E+01  4.308E+00 -1.918E-01
   1   13    3     8     4    1.6564E+02 -3.6829E+00   1.6932E+02  0.000E+00  0.000E+00  0.000E+00  1.00606E+03  2.936E+00  4.257E+01  4.338E+00 -2.830E-01
   1   13    2     8     5    1.6932E+02 -2.5982E+00   1.7192E+02  0.000E+00  0.000E+00  0.000E+00  9.99831E+02  2.956E+00  4.287E+01  4.368E+00 -1.983E-01
   1   13    1     8     6    1.7192E+02 -1.9949E+00   1.7391E+02  0.000E+00  0.000E+00  0.000E+00  9.94846E+02  2.971E+00  4.308E+01  2.634E+00 -2.524E-01
   1    8    6     9     1    0.0000E+00  0.0000E+00   0.0000E+00  0.000E+00  0.000E+00  0.000E+00  1.07875E+03  0.000E+00  4.000E+00  0.000E+00  1.000E+00
   1    8    5     9     2    0.0000E+00  0.0000E+00   0.0000E+00  0.000E+00  0.000E+00  0.000E+00  1.07825E+03  0.000E+00  4.000E+00  0.000E+00  1.000E+00





UNSATURATED ZONE PACKAGE VOLUMETRIC BUDGET FOR  TIME STEP    30 STRESS PERIOD   14
  ------------------------------------------------------------------------------



     CUMULATIVE VOLUMES      L**3       RATES FOR THIS TIME STEP      L**3/T
     ------------------                 ------------------------

           IN:                                      IN:
           ---                                      ---
        INFILTRATION =   432938880.7348          INFILTRATION =           0.8475

          OUT:                                     OUT:
          ----                                     ----
              UZF ET =   432012022.8872                UZF ET =           0.7500
        UZF RECHARGE =       73224.0000          UZF RECHARGE =       0.0000E+00

            IN - OUT =      853633.8476              IN - OUT =       9.7500E-02

          STORAGE:                                 STORAGE:
          --------                                 --------
      STORAGE CHANGE =      853633.7392        STORAGE CHANGE =       9.7500E-02

 PERCENT DISCREPANCY IS DIFFERENCE BETWEEN IN-OUT MINUS CHANGE IN STORAGE
 DIVIDED BY THE AVERAGE OF IN AND OUT TIMES 100

 PERCENT DISCREPANCY =           0.00     PERCENT DISCREPANCY =           0.00






1
  VOLUMETRIC BUDGET FOR AGRICULTURAL FIELDS AT  END OF TIME STEP   30, STRESS PERIOD  14
  ------------------------------------------------------------------------------

     CUMULATIVE VOLUMES      L**3       RATES FOR THIS TIME STEP      L**3/T
     ------------------                 ------------------------

           IN:                                      IN:
           ---                                      ---
               AG WELLS  =   403889344.0000                 AG WELLS  =           0.0000
      DIVERSION SEGMENTS =           0.0000        DIVERSION SEGMENTS =           0.0000
       IRRIGATION PONDS  =           0.0000         IRRIGATION PONDS  =           0.0000
           GW IRRIGATION =           0.0000             GW IRRIGATION =           0.0000
           SW IRRIGATION =           0.0000             SW IRRIGATION =           0.0000
        SYSTEM LOSSES GW =           0.0000          SYSTEM LOSSES GW =           0.0000
        SYSTEM LOSSES SW =           0.0000          SYSTEM LOSSES SW =           0.0000

                TOTAL IN =   403889344.0000                  TOTAL IN =           0.0000

          OUT:                                     OUT:
          ----                                     ----
               AG WELLS  =           0.0000                 AG WELLS  =           0.0000
      DIVERSION SEGMENTS =           0.0000        DIVERSION SEGMENTS =           0.0000
       IRRIGATION PONDS  =           0.0000         IRRIGATION PONDS  =           0.0000
           GW IRRIGATION =   403889344.0000             GW IRRIGATION =           0.0000
           SW IRRIGATION =           0.0000             SW IRRIGATION =           0.0000
        SYSTEM LOSSES GW =           0.0000          SYSTEM LOSSES GW =           0.0000
        SYSTEM LOSSES SW =           0.0000          SYSTEM LOSSES SW =           0.0000

               TOTAL OUT =   403889344.0000                 TOTAL OUT =           0.0000

                IN - OUT =           0.0000                  IN - OUT =           0.0000

     PERCENT DISCREPANCY =           0.00         PERCENT DISCREPANCY =           0.00



1
  VOLUMETRIC BUDGET FOR ENTIRE MODEL AT END OF TIME STEP   30, STRESS PERIOD  14
  ------------------------------------------------------------------------------

     CUMULATIVE VOLUMES      L**3       RATES FOR THIS TIME STEP      L**3/T
     ------------------                 ------------------------

           IN:                                      IN:
           ---                                      ---
             STORAGE     =   553191168.0000               STORAGE     =           6.3224
       CONSTANT HEAD     =           0.0000         CONSTANT HEAD     =           0.0000
     HEAD DEP BOUNDS     =     9793176.0000       HEAD DEP BOUNDS     =           0.2857
      STREAM LEAKAGE     =   411665056.0000        STREAM LEAKAGE     =          11.1269
        UZF RECHARGE     =       73223.9531          UZF RECHARGE     =           0.0000
               GW ET     =           0.0000                 GW ET     =           0.0000
     SURFACE LEAKAGE     =           0.0000       SURFACE LEAKAGE     =           0.0000
           AG WELLS      =           0.0000             AG WELLS      =           0.0000

                TOTAL IN =   974722560.0000                  TOTAL IN =          17.7350

          OUT:                                     OUT:
          ----                                     ----
             STORAGE     =   190487312.0000               STORAGE     =           6.6571
       CONSTANT HEAD     =           0.0000         CONSTANT HEAD     =           0.0000
     HEAD DEP BOUNDS     =    10021083.0000       HEAD DEP BOUNDS     =           0.2889
      STREAM LEAKAGE     =   363660896.0000        STREAM LEAKAGE     =          10.7889
        UZF RECHARGE     =           0.0000          UZF RECHARGE     =           0.0000
               GW ET     =     6666090.0000                 GW ET     =           0.0000
     SURFACE LEAKAGE     =           0.0000       SURFACE LEAKAGE     =           0.0000
           AG WELLS      =   403889344.0000             AG WELLS      =           0.0000

               TOTAL OUT =   974724736.0000                 TOTAL OUT =          17.7350

                IN - OUT =       -2176.0000                  IN - OUT =       5.7220E-06

     PERCENT DISCREPANCY =          -0.00         PERCENT DISCREPANCY =           0.00






         TIME SUMMARY AT END OF TIME STEP   30 IN STRESS PERIOD   14
                    SECONDS     MINUTES      HOURS       DAYS        YEARS
                    -----------------------------------------------------------
   TIME STEP LENGTH  87667.      1461.1      24.352      1.0147     2.77799E-03
 STRESS PERIOD TIME 2.63000E+06  43833.      730.56      30.440     8.33397E-02
         TOTAL TIME 3.42763E+07 5.71272E+05  9521.2      396.72      1.0862    
1
1
                            STRESS PERIOD NO.   15, LENGTH =   2630000.    
                            -----------------------------------------------

                              NUMBER OF TIME STEPS =    30

                               MULTIPLIER FOR DELT =     1.000

                            INITIAL TIME STEP SIZE =   87666.66    

 REUSING NON-PARAMETER GHB CELLS FROM LAST STRESS PERIOD

      2 GHB CELLS

 REUSING STREAM SEGMENT DATA FROM LAST STRESS PERIOD



            AREAL INFILTRATION RATE
 READING ON UNIT   19 WITH FORMAT: (FREE)              

            1           2           3           4           5           6           7           8           9          10
 ........................................................................................................................
   1   1.0000E-10  2.0000E-10   0.000       0.000       0.000       0.000       0.000       0.000       0.000       0.000    
   2   2.0000E-10  1.0000E-10  2.0000E-10   0.000       0.000      8.0000E-10  8.0000E-10  5.0000E-10   0.000       0.000    
   3    0.000      5.0000E-10  1.0000E-10  1.0000E-10  8.0000E-10  8.0000E-10  5.0000E-10  5.0000E-10   0.000       0.000    
   4   8.0000E-10  5.0000E-10  1.0000E-10  1.0000E-10  1.0000E-10  1.0000E-10  1.0000E-10  1.0000E-10  2.0000E-10   0.000    
   5   8.0000E-10  5.0000E-10  1.0000E-10  1.0000E-10  1.0000E-10  1.0000E-10  1.0000E-10  1.0000E-10  1.0000E-10  1.0000E-10
   6   8.0000E-10  5.0000E-10  5.0000E-10  2.0000E-10  2.0000E-10  1.0000E-10  1.0000E-10  1.0000E-10  1.0000E-10  5.0000E-10
   7   8.0000E-10  5.0000E-10  5.0000E-10  2.0000E-10  2.0000E-10  1.0000E-10  1.0000E-10  2.0000E-10  2.0000E-10   0.000    
   8    0.000      5.0000E-10  5.0000E-10  2.0000E-10  2.0000E-10  1.0000E-10  1.0000E-10  2.0000E-10  5.0000E-10   0.000    
   9    0.000      5.0000E-10  5.0000E-10  2.0000E-10  2.0000E-10  1.0000E-10  1.0000E-10  2.0000E-10  5.0000E-10   0.000    
  10    0.000      5.0000E-10  5.0000E-10  2.0000E-10  2.0000E-10  1.0000E-10  1.0000E-10  2.0000E-10  5.0000E-10  8.0000E-10
  11    0.000      1.0000E-10  1.0000E-10  1.0000E-10  1.0000E-10  1.0000E-10  1.0000E-10  2.0000E-10  5.0000E-10   0.000    
  12   1.0000E-10  1.0000E-10  1.0000E-10  1.0000E-10  1.0000E-10  1.0000E-10  1.0000E-10  1.0000E-10  2.0000E-10   0.000    
  13   1.0000E-10  1.0000E-10  2.0000E-10  2.0000E-10  2.0000E-10  2.0000E-10  2.0000E-10  1.0000E-10  1.0000E-10   0.000    
  14    0.000      2.0000E-10  5.0000E-10  5.0000E-10  5.0000E-10  5.0000E-10  5.0000E-10  2.0000E-10  1.0000E-10   0.000    
  15    0.000       0.000      8.0000E-10  8.0000E-10  8.0000E-10  8.0000E-10   0.000       0.000       0.000       0.000    

                  ET RATE =  5.000000E-10

 USING ET EXTINCTION DEPTH FROM PREVIOUS STRESS PERIOD. CURRENT PERIOD IS:      15

 USING EXTINCTION WATER CONTENT FROM PREVIOUS STRESS PERIOD. CURRENT PERIOD IS:      15

 USING AIR ENTRY PRESSURE FROM PREVIOUS STRESS PERIOD. CURRENT PERIOD IS:      15

 USING ROOT PRESSURE HEAD FROM PREVIOUS STRESS PERIOD. CURRENT PERIOD IS:      15

 USING ROOT ACTIVITY FROM PREVIOUS STRESS PERIOD. CURRENT PERIOD IS:      15

 PROCESSING AG STRESS PERIOD DATA

 READING AG STRESS PERIOD DATA

 READING IRRIGATION SEGMENT

 READING IRRIGATION WELL

 READING SUPPLEMENTAL WELL

 NO IRRPOND OR REUSING IRRPOND DATA FROM LAST STRESS PERIOD

 END PROCESSING AG STRESS PERIOD DATA OPTIONS
 
 SOLVING FOR HEAD 
                                                   Max.-Head-Change                         Max.-Flux-Residual
  Residual-Control   Outer-Iter.   Inner-Iter.     Column Row Layer    Maximum-Head-Change  Column Row Layer    Maximum-Flux-Residual          L2-NORM 
          0                 1           2             4    7     1       0.1563952228E-01       4    7    1         0.8209842219E+00      0.2006762103E+01
          0                 2           2             4    7     1      -0.1521304091E-02       4    7    1        -0.8209876157E-01      0.2006725015E+00
          0                 3           1             4    7     1       0.1035951219E-03       4    7    1         0.5746912590E-02      0.1404674611E-01
          0                 4           1             4    7     1      -0.4122149257E-05       4    7    1        -0.2350490765E-03      0.5744925098E-03

    ------------------------------------------------
       NWT REQUIRED            4 OUTER ITERATIONS 
       AND A TOTAL OF          6 INNER ITERATIONS.
    ------------------------------------------------

 NO OUTPUT CONTROL FOR STRESS PERIOD   15   TIME STEP    1
 
 SOLVING FOR HEAD 
                                                   Max.-Head-Change                         Max.-Flux-Residual
  Residual-Control   Outer-Iter.   Inner-Iter.     Column Row Layer    Maximum-Head-Change  Column Row Layer    Maximum-Flux-Residual          L2-NORM 
          0                 1           2             4    7     1       0.1548074828E-01       4    7    1         0.8126119604E+00      0.1987900882E+01
          0                 2           2             4    7     1      -0.1505859598E-02       4    7    1        -0.8126152788E-01      0.1987896707E+00
          0                 3           1             4    7     1       0.1025434100E-03       4    7    1         0.5688306258E-02      0.1391521338E-01
          0                 4           1             4    7     1      -0.4080300605E-05       4    7    1        -0.2326520685E-03      0.5691263838E-03

    ------------------------------------------------
       NWT REQUIRED            4 OUTER ITERATIONS 
       AND A TOTAL OF          6 INNER ITERATIONS.
    ------------------------------------------------

 NO OUTPUT CONTROL FOR STRESS PERIOD   15   TIME STEP    2
 
 SOLVING FOR HEAD 
                                                   Max.-Head-Change                         Max.-Flux-Residual
  Residual-Control   Outer-Iter.   Inner-Iter.     Column Row Layer    Maximum-Head-Change  Column Row Layer    Maximum-Flux-Residual          L2-NORM 
          0                 1           2             4    7     1       0.1532421316E-01       4    7    1         0.8043576339E+00      0.1970352196E+01
          0                 2           2             4    7     1      -0.1490632962E-02       4    7    1        -0.8043608790E-01      0.1970414021E+00
          0                 3           1             4    7     1       0.1015066028E-03       4    7    1         0.5630525526E-02      0.1379253446E-01
          0                 4           1             4    7     1      -0.4039112439E-05       4    7    1        -0.2302888288E-03      0.5642199813E-03

    ------------------------------------------------
       NWT REQUIRED            4 OUTER ITERATIONS 
       AND A TOTAL OF          6 INNER ITERATIONS.
    ------------------------------------------------

 NO OUTPUT CONTROL FOR STRESS PERIOD   15   TIME STEP    3
 
 SOLVING FOR HEAD 
                                                   Max.-Head-Change                         Max.-Flux-Residual
  Residual-Control   Outer-Iter.   Inner-Iter.     Column Row Layer    Maximum-Head-Change  Column Row Layer    Maximum-Flux-Residual          L2-NORM 
          0                 1           2             4    7     1       0.1517008257E-01       4    7    1         0.7962340985E+00      0.1954110572E+01
          0                 2           2             4    7     1      -0.1475640089E-02       4    7    1        -0.7962372733E-01      0.1954111622E+00
          0                 3           1             4    7     1       0.1004855755E-03       4    7    1         0.5573660319E-02      0.1367876091E-01
          0                 4           1             4    7     1      -0.3998417365E-05       4    7    1        -0.2279630382E-03      0.5594536971E-03

    ------------------------------------------------
       NWT REQUIRED            4 OUTER ITERATIONS 
       AND A TOTAL OF          6 INNER ITERATIONS.
    ------------------------------------------------

 NO OUTPUT CONTROL FOR STRESS PERIOD   15   TIME STEP    4
 
 SOLVING FOR HEAD 
                                                   Max.-Head-Change                         Max.-Flux-Residual
  Residual-Control   Outer-Iter.   Inner-Iter.     Column Row Layer    Maximum-Head-Change  Column Row Layer    Maximum-Flux-Residual          L2-NORM 
          0                 1           2             4    7     1       0.1501804110E-01       4    7    1         0.7882205287E+00      0.1938031122E+01
          0                 2           2             4    7     1      -0.1460850498E-02       4    7    1        -0.7882236347E-01      0.1938031972E+00
          0                 3           1             4    7     1       0.9947846011E-04       4    7    1         0.5517564883E-02      0.1356621343E-01

    ------------------------------------------------
       NWT REQUIRED            3 OUTER ITERATIONS 
       AND A TOTAL OF          5 INNER ITERATIONS.
    ------------------------------------------------

 NO OUTPUT CONTROL FOR STRESS PERIOD   15   TIME STEP    5
 
 SOLVING FOR HEAD 
                                                   Max.-Head-Change                         Max.-Flux-Residual
  Residual-Control   Outer-Iter.   Inner-Iter.     Column Row Layer    Maximum-Head-Change  Column Row Layer    Maximum-Flux-Residual          L2-NORM 
          0                 1           2             4    7     1       0.1486800169E-01       4    7    1         0.7803125057E+00      0.1922158621E+01
          0                 2           2             4    7     1      -0.1446255655E-02       4    7    1        -0.7803155446E-01      0.1922159019E+00
          0                 3           1             4    7     1       0.9848460620E-04       4    7    1         0.5462208292E-02      0.1345508643E-01

    ------------------------------------------------
       NWT REQUIRED            3 OUTER ITERATIONS 
       AND A TOTAL OF          5 INNER ITERATIONS.
    ------------------------------------------------

 NO OUTPUT CONTROL FOR STRESS PERIOD   15   TIME STEP    6
 
 SOLVING FOR HEAD 
                                                   Max.-Head-Change                         Max.-Flux-Residual
  Residual-Control   Outer-Iter.   Inner-Iter.     Column Row Layer    Maximum-Head-Change  Column Row Layer    Maximum-Flux-Residual          L2-NORM 
          0                 1           2             4    7     1       0.1472024998E-01       4    7    1         0.7725258051E+00      0.1906488619E+01
          0                 2           2             4    7     1      -0.1431883345E-02       4    7    1        -0.7725287784E-01      0.1906488524E+00
          0                 3           1             4    7     1       0.9750590613E-04       4    7    1         0.5407700970E-02      0.1334540696E-01

    ------------------------------------------------
       NWT REQUIRED            3 OUTER ITERATIONS 
       AND A TOTAL OF          5 INNER ITERATIONS.
    ------------------------------------------------

 NO OUTPUT CONTROL FOR STRESS PERIOD   15   TIME STEP    7
 
 SOLVING FOR HEAD 
                                                   Max.-Head-Change                         Max.-Flux-Residual
  Residual-Control   Outer-Iter.   Inner-Iter.     Column Row Layer    Maximum-Head-Change  Column Row Layer    Maximum-Flux-Residual          L2-NORM 
          0                 1           2             4    7     1       0.1457447344E-01       4    7    1         0.7648430035E+00      0.1891024650E+01
          0                 2           2             4    7     1      -0.1417703167E-02       4    7    1        -0.7648459129E-01      0.1891024343E+00
          0                 3           1             4    7     1       0.9654028972E-04       4    7    1         0.5353920940E-02      0.1323716641E-01

    ------------------------------------------------
       NWT REQUIRED            3 OUTER ITERATIONS 
       AND A TOTAL OF          5 INNER ITERATIONS.
    ------------------------------------------------

 NO OUTPUT CONTROL FOR STRESS PERIOD   15   TIME STEP    8
 
 SOLVING FOR HEAD 
                                                   Max.-Head-Change                         Max.-Flux-Residual
  Residual-Control   Outer-Iter.   Inner-Iter.     Column Row Layer    Maximum-Head-Change  Column Row Layer    Maximum-Flux-Residual          L2-NORM 
          0                 1           2             4    7     1       0.1443076983E-01       4    7    1         0.7572699681E+00      0.1875754668E+01
          0                 2           2             4    7     1      -0.1403724632E-02       4    7    1        -0.7572728149E-01      0.1875753352E+00
          0                 3           1             4    7     1       0.9558840461E-04       4    7    1         0.5300909309E-02      0.1313025265E-01

    ------------------------------------------------
       NWT REQUIRED            3 OUTER ITERATIONS 
       AND A TOTAL OF          5 INNER ITERATIONS.
    ------------------------------------------------

 NO OUTPUT CONTROL FOR STRESS PERIOD   15   TIME STEP    9
 
 SOLVING FOR HEAD 
                                                   Max.-Head-Change                         Max.-Flux-Residual
  Residual-Control   Outer-Iter.   Inner-Iter.     Column Row Layer    Maximum-Head-Change  Column Row Layer    Maximum-Flux-Residual          L2-NORM 
          0                 1           2             4    7     1       0.1428910180E-01       4    7    1         0.7498044108E+00      0.1860685240E+01
          0                 2           2             4    7     1      -0.1389944105E-02       4    7    1        -0.7498071968E-01      0.1860683134E+00
          0                 3           1             4    7     1       0.9465000242E-04       4    7    1         0.5248650019E-02      0.1302475890E-01

    ------------------------------------------------
       NWT REQUIRED            3 OUTER ITERATIONS 
       AND A TOTAL OF          5 INNER ITERATIONS.
    ------------------------------------------------

 NO OUTPUT CONTROL FOR STRESS PERIOD   15   TIME STEP   10
 
 SOLVING FOR HEAD 
                                                   Max.-Head-Change                         Max.-Flux-Residual
  Residual-Control   Outer-Iter.   Inner-Iter.     Column Row Layer    Maximum-Head-Change  Column Row Layer    Maximum-Flux-Residual          L2-NORM 
          0                 1           2             4    7     1       0.1414943201E-01       4    7    1         0.7424443946E+00      0.1845810922E+01
          0                 2           2             4    7     1      -0.1376357954E-02       4    7    1        -0.7424471210E-01      0.1845808137E+00
          0                 3           1             4    7     1       0.9372483631E-04       4    7    1         0.5197129498E-02      0.1292062231E-01

    ------------------------------------------------
       NWT REQUIRED            3 OUTER ITERATIONS 
       AND A TOTAL OF          5 INNER ITERATIONS.
    ------------------------------------------------

 NO OUTPUT CONTROL FOR STRESS PERIOD   15   TIME STEP   11
 
 SOLVING FOR HEAD 
                                                   Max.-Head-Change                         Max.-Flux-Residual
  Residual-Control   Outer-Iter.   Inner-Iter.     Column Row Layer    Maximum-Head-Change  Column Row Layer    Maximum-Flux-Residual          L2-NORM 
          0                 1           2             4    7     1       0.1401171925E-01       4    7    1         0.7351879837E+00      0.1831109752E+01
          0                 2           2             4    7     1      -0.1362962172E-02       4    7    1        -0.7351906521E-01      0.1831106110E+00
          0                 3           1             4    7     1       0.9281263457E-04       4    7    1         0.5146334275E-02      0.1281770417E-01

    ------------------------------------------------
       NWT REQUIRED            3 OUTER ITERATIONS 
       AND A TOTAL OF          5 INNER ITERATIONS.
    ------------------------------------------------

 NO OUTPUT CONTROL FOR STRESS PERIOD   15   TIME STEP   12
 
 SOLVING FOR HEAD 
                                                   Max.-Head-Change                         Max.-Flux-Residual
  Residual-Control   Outer-Iter.   Inner-Iter.     Column Row Layer    Maximum-Head-Change  Column Row Layer    Maximum-Flux-Residual          L2-NORM 
          0                 1           2             4    7     1       0.1387593053E-01       4    7    1         0.7280330414E+00      0.1816601888E+01
          0                 2           2             4    7     1      -0.1349753548E-02       4    7    1        -0.7280356533E-01      0.1816597603E+00
          0                 3           1             4    7     1       0.9191317685E-04       4    7    1         0.5096249303E-02      0.1271613350E-01

    ------------------------------------------------
       NWT REQUIRED            3 OUTER ITERATIONS 
       AND A TOTAL OF          5 INNER ITERATIONS.
    ------------------------------------------------

 NO OUTPUT CONTROL FOR STRESS PERIOD   15   TIME STEP   13
 
 SOLVING FOR HEAD 
                                                   Max.-Head-Change                         Max.-Flux-Residual
  Residual-Control   Outer-Iter.   Inner-Iter.     Column Row Layer    Maximum-Head-Change  Column Row Layer    Maximum-Flux-Residual          L2-NORM 
          0                 1           2             4    7     1       0.1374189081E-01       4    7    1         0.7209704983E+00      0.1802266707E+01
          0                 2           2             4    7     1      -0.1336715056E-02       4    7    1        -0.7209730548E-01      0.1802261693E+00
          0                 3           1             4    7     1       0.9102530429E-04       4    7    1         0.5046811121E-02      0.1261576510E-01

    ------------------------------------------------
       NWT REQUIRED            3 OUTER ITERATIONS 
       AND A TOTAL OF          5 INNER ITERATIONS.
    ------------------------------------------------

 NO OUTPUT CONTROL FOR STRESS PERIOD   15   TIME STEP   14
 
 SOLVING FOR HEAD 
                                                   Max.-Head-Change                         Max.-Flux-Residual
  Residual-Control   Outer-Iter.   Inner-Iter.     Column Row Layer    Maximum-Head-Change  Column Row Layer    Maximum-Flux-Residual          L2-NORM 
          0                 1           2             4    7     1       0.1360984628E-01       4    7    1         0.7140133558E+00      0.1788117705E+01
          0                 2           2             4    7     1      -0.1323870643E-02       4    7    1        -0.7140158581E-01      0.1788111897E+00
          0                 3           1             4    7     1       0.9015064839E-04       4    7    1         0.4998110784E-02      0.1251672038E-01

    ------------------------------------------------
       NWT REQUIRED            3 OUTER ITERATIONS 
       AND A TOTAL OF          5 INNER ITERATIONS.
    ------------------------------------------------

 NO OUTPUT CONTROL FOR STRESS PERIOD   15   TIME STEP   15
 
 SOLVING FOR HEAD 
                                                   Max.-Head-Change                         Max.-Flux-Residual
  Residual-Control   Outer-Iter.   Inner-Iter.     Column Row Layer    Maximum-Head-Change  Column Row Layer    Maximum-Flux-Residual          L2-NORM 
          0                 1           2             4    7     1       0.1347961603E-01       4    7    1         0.7071523009E+00      0.1774137070E+01
          0                 2           2             4    7     1      -0.1311202713E-02       4    7    1        -0.7071547505E-01      0.1774130729E+00
          0                 3           1             4    7     1       0.8928801005E-04       4    7    1         0.4950083061E-02      0.1241885368E-01

    ------------------------------------------------
       NWT REQUIRED            3 OUTER ITERATIONS 
       AND A TOTAL OF          5 INNER ITERATIONS.
    ------------------------------------------------

 NO OUTPUT CONTROL FOR STRESS PERIOD   15   TIME STEP   16
 
 SOLVING FOR HEAD 
                                                   Max.-Head-Change                         Max.-Flux-Residual
  Residual-Control   Outer-Iter.   Inner-Iter.     Column Row Layer    Maximum-Head-Change  Column Row Layer    Maximum-Flux-Residual          L2-NORM 
          0                 1           2             4    7     1       0.1335116887E-01       4    7    1         0.7003853142E+00      0.1760326187E+01
          0                 2           2             4    7     1      -0.1298708229E-02       4    7    1        -0.7003877123E-01      0.1760319168E+00
          0                 3           1             4    7     1       0.8843718290E-04       4    7    1         0.4902713823E-02      0.1232216666E-01

    ------------------------------------------------
       NWT REQUIRED            3 OUTER ITERATIONS 
       AND A TOTAL OF          5 INNER ITERATIONS.
    ------------------------------------------------

 NO OUTPUT CONTROL FOR STRESS PERIOD   15   TIME STEP   17
 
 SOLVING FOR HEAD 
                                                   Max.-Head-Change                         Max.-Flux-Residual
  Residual-Control   Outer-Iter.   Inner-Iter.     Column Row Layer    Maximum-Head-Change  Column Row Layer    Maximum-Flux-Residual          L2-NORM 
          0                 1           2             4    7     1       0.1322446923E-01       4    7    1         0.6937107766E+00      0.1746690258E+01
          0                 2           2             4    7     1      -0.1286383735E-02       4    7    1        -0.6937131245E-01      0.1746682470E+00
          0                 3           1             4    7     1       0.8759793084E-04       4    7    1         0.4855991729E-02      0.1222669857E-01

    ------------------------------------------------
       NWT REQUIRED            3 OUTER ITERATIONS 
       AND A TOTAL OF          5 INNER ITERATIONS.
    ------------------------------------------------

 NO OUTPUT CONTROL FOR STRESS PERIOD   15   TIME STEP   18
 
 SOLVING FOR HEAD 
                                                   Max.-Head-Change                         Max.-Flux-Residual
  Residual-Control   Outer-Iter.   Inner-Iter.     Column Row Layer    Maximum-Head-Change  Column Row Layer    Maximum-Flux-Residual          L2-NORM 
          0                 1           2             4    7     1       0.1309948554E-01       4    7    1         0.6871268456E+00      0.1733210794E+01
          0                 2           2             4    7     1      -0.1274226157E-02       4    7    1        -0.6871291445E-01      0.1733202247E+00
          0                 3           1             4    7     1       0.8677004572E-04       4    7    1         0.4809903900E-02      0.1213232060E-01

    ------------------------------------------------
       NWT REQUIRED            3 OUTER ITERATIONS 
       AND A TOTAL OF          5 INNER ITERATIONS.
    ------------------------------------------------

 NO OUTPUT CONTROL FOR STRESS PERIOD   15   TIME STEP   19
 
 SOLVING FOR HEAD 
                                                   Max.-Head-Change                         Max.-Flux-Residual
  Residual-Control   Outer-Iter.   Inner-Iter.     Column Row Layer    Maximum-Head-Change  Column Row Layer    Maximum-Flux-Residual          L2-NORM 
          0                 1           2             4    7     1       0.1297618399E-01       4    7    1         0.6806318833E+00      0.1719891491E+01
          0                 2           2             4    7     1      -0.1262296361E-02       4    7    1        -0.6808123562E-01      0.1719930495E+00
          0                 3           1             4    7     1       0.8595766968E-04       4    7    1         0.4765686279E-02      0.1203940761E-01

    ------------------------------------------------
       NWT REQUIRED            3 OUTER ITERATIONS 
       AND A TOTAL OF          5 INNER ITERATIONS.
    ------------------------------------------------

 NO OUTPUT CONTROL FOR STRESS PERIOD   15   TIME STEP   20
 
 SOLVING FOR HEAD 
                                                   Max.-Head-Change                         Max.-Flux-Residual
  Residual-Control   Outer-Iter.   Inner-Iter.     Column Row Layer    Maximum-Head-Change  Column Row Layer    Maximum-Flux-Residual          L2-NORM 
          0                 1           2             4    7     1       0.1285195428E-01       4    7    1         0.6742206760E+00      0.1706737611E+01
          0                 2           2             4    7     1      -0.1250148171E-02       4    7    1        -0.6742230171E-01      0.1706727786E+00
          0                 3           1             4    7     1       0.8513042370E-04       4    7    1         0.4719560945E-02      0.1194697546E-01

    ------------------------------------------------
       NWT REQUIRED            3 OUTER ITERATIONS 
       AND A TOTAL OF          5 INNER ITERATIONS.
    ------------------------------------------------

 NO OUTPUT CONTROL FOR STRESS PERIOD   15   TIME STEP   21
 
 SOLVING FOR HEAD 
                                                   Max.-Head-Change                         Max.-Flux-Residual
  Residual-Control   Outer-Iter.   Inner-Iter.     Column Row Layer    Maximum-Head-Change  Column Row Layer    Maximum-Flux-Residual          L2-NORM 
          0                 1           2             4    7     1       0.1272975196E-01       4    7    1         0.6677755774E+00      0.1693709133E+01
          0                 2           2             4    7     1      -0.1238261138E-02       4    7    1        -0.6677778646E-01      0.1693699025E+00
          0                 3           1             4    7     1       0.8432096183E-04       4    7    1         0.4674444923E-02      0.1185579152E-01

    ------------------------------------------------
       NWT REQUIRED            3 OUTER ITERATIONS 
       AND A TOTAL OF          5 INNER ITERATIONS.
    ------------------------------------------------

 NO OUTPUT CONTROL FOR STRESS PERIOD   15   TIME STEP   22
 
 SOLVING FOR HEAD 
                                                   Max.-Head-Change                         Max.-Flux-Residual
  Residual-Control   Outer-Iter.   Inner-Iter.     Column Row Layer    Maximum-Head-Change  Column Row Layer    Maximum-Flux-Residual          L2-NORM 
          0                 1           2             4    7     1       0.1260918628E-01       4    7    1         0.6614174651E+00      0.1680823435E+01
          0                 2           2             4    7     1      -0.1226533307E-02       4    7    1        -0.6614196998E-01      0.1680812935E+00
          0                 3           1             4    7     1       0.8352234077E-04       4    7    1         0.4629937785E-02      0.1176558054E-01

    ------------------------------------------------
       NWT REQUIRED            3 OUTER ITERATIONS 
       AND A TOTAL OF          5 INNER ITERATIONS.
    ------------------------------------------------

 NO OUTPUT CONTROL FOR STRESS PERIOD   15   TIME STEP   23
 
 SOLVING FOR HEAD 
                                                   Max.-Head-Change                         Max.-Flux-Residual
  Residual-Control   Outer-Iter.   Inner-Iter.     Column Row Layer    Maximum-Head-Change  Column Row Layer    Maximum-Flux-Residual          L2-NORM 
          0                 1           2             4    7     1       0.1249049734E-01       4    7    1         0.6551589309E+00      0.1668102922E+01
          0                 2           2             4    7     1      -0.1214988034E-02       4    7    1        -0.6551611144E-01      0.1668092104E+00
          0                 3           1             4    7     1       0.8273615121E-04       4    7    1         0.4586127717E-02      0.1167652693E-01

    ------------------------------------------------
       NWT REQUIRED            3 OUTER ITERATIONS 
       AND A TOTAL OF          5 INNER ITERATIONS.
    ------------------------------------------------

 NO OUTPUT CONTROL FOR STRESS PERIOD   15   TIME STEP   24
 
 SOLVING FOR HEAD 
                                                   Max.-Head-Change                         Max.-Flux-Residual
  Residual-Control   Outer-Iter.   Inner-Iter.     Column Row Layer    Maximum-Head-Change  Column Row Layer    Maximum-Flux-Residual          L2-NORM 
          0                 1           2             4    7     1       0.1237349739E-01       4    7    1         0.6489903418E+00      0.1655526062E+01
          0                 2           2             4    7     1      -0.1203607056E-02       4    7    1        -0.6489924761E-01      0.1655514718E+00
          0                 3           1             4    7     1       0.8196114932E-04       4    7    1         0.4542947265E-02      0.1158848788E-01

    ------------------------------------------------
       NWT REQUIRED            3 OUTER ITERATIONS 
       AND A TOTAL OF          5 INNER ITERATIONS.
    ------------------------------------------------

 NO OUTPUT CONTROL FOR STRESS PERIOD   15   TIME STEP   25
 
 SOLVING FOR HEAD 
                                                   Max.-Head-Change                         Max.-Flux-Residual
  Residual-Control   Outer-Iter.   Inner-Iter.     Column Row Layer    Maximum-Head-Change  Column Row Layer    Maximum-Flux-Residual          L2-NORM 
          0                 1           2             4    7     1       0.1225828698E-01       4    7    1         0.6429166850E+00      0.1643104884E+01
          0                 2           2             4    7     1      -0.1192400154E-02       4    7    1        -0.6429187712E-01      0.1643095598E+00
          0                 3           1             4    7     1       0.8119800156E-04       4    7    1         0.4500431371E-02      0.1150180867E-01

    ------------------------------------------------
       NWT REQUIRED            3 OUTER ITERATIONS 
       AND A TOTAL OF          5 INNER ITERATIONS.
    ------------------------------------------------

 NO OUTPUT CONTROL FOR STRESS PERIOD   15   TIME STEP   26
 
 SOLVING FOR HEAD 
                                                   Max.-Head-Change                         Max.-Flux-Residual
  Residual-Control   Outer-Iter.   Inner-Iter.     Column Row Layer    Maximum-Head-Change  Column Row Layer    Maximum-Flux-Residual          L2-NORM 
          0                 1           2             4    7     1       0.1214454900E-01       4    7    1         0.6369210903E+00      0.1630822244E+01
          0                 2           2             4    7     1      -0.1181336479E-02       4    7    1        -0.6369231295E-01      0.1630809880E+00
          0                 3           1             4    7     1       0.8044460723E-04       4    7    1         0.4458461905E-02      0.1141555047E-01

    ------------------------------------------------
       NWT REQUIRED            3 OUTER ITERATIONS 
       AND A TOTAL OF          5 INNER ITERATIONS.
    ------------------------------------------------

 NO OUTPUT CONTROL FOR STRESS PERIOD   15   TIME STEP   27
 
 SOLVING FOR HEAD 
                                                   Max.-Head-Change                         Max.-Flux-Residual
  Residual-Control   Outer-Iter.   Inner-Iter.     Column Row Layer    Maximum-Head-Change  Column Row Layer    Maximum-Flux-Residual          L2-NORM 
          0                 1           2             4    7     1       0.1203252830E-01       4    7    1         0.6310165606E+00      0.1618688016E+01
          0                 2           2             4    7     1      -0.1170439853E-02       4    7    1        -0.6310185545E-01      0.1618675415E+00
          0                 3           1             4    7     1       0.7970258800E-04       4    7    1         0.4417129903E-02      0.1133061232E-01

    ------------------------------------------------
       NWT REQUIRED            3 OUTER ITERATIONS 
       AND A TOTAL OF          5 INNER ITERATIONS.
    ------------------------------------------------

 NO OUTPUT CONTROL FOR STRESS PERIOD   15   TIME STEP   28
 
 SOLVING FOR HEAD 
                                                   Max.-Head-Change                         Max.-Flux-Residual
  Residual-Control   Outer-Iter.   Inner-Iter.     Column Row Layer    Maximum-Head-Change  Column Row Layer    Maximum-Flux-Residual          L2-NORM 
          0                 1           2             4    7     1       0.1192214779E-01       4    7    1         0.6251937081E+00      0.1662880044E+01
          0                 2           2             4    7     1      -0.1159702772E-02       4    7    1        -0.6251956567E-01      0.1761702288E+00
          0                 3           1             4    7     1       0.7897143125E-04       4    7    1         0.4376369650E-02      0.1230120538E-01

    ------------------------------------------------
       NWT REQUIRED            3 OUTER ITERATIONS 
       AND A TOTAL OF          5 INNER ITERATIONS.
    ------------------------------------------------

 NO OUTPUT CONTROL FOR STRESS PERIOD   15   TIME STEP   29
 
 SOLVING FOR HEAD 
                                                   Max.-Head-Change                         Max.-Flux-Residual
  Residual-Control   Outer-Iter.   Inner-Iter.     Column Row Layer    Maximum-Head-Change  Column Row Layer    Maximum-Flux-Residual          L2-NORM 
          0                 1           2             4   13     1       0.2198864278E-01       4   13    1         0.1270458586E+01      0.2767455927E+01
          0                 2           2             4   13     1      -0.2115826212E-02       4   13    1        -0.1256977690E+00      0.2711785438E+00
          0                 3           2             4   13     1       0.1419150112E-03       4   13    1         0.8668684834E-02      0.1846711211E-01
          0                 4           1             4   13     1      -0.5496838083E-05       4   13    1        -0.3452667979E-03      0.7222015577E-03

    ------------------------------------------------
       NWT REQUIRED            4 OUTER ITERATIONS 
       AND A TOTAL OF          7 INNER ITERATIONS.
    ------------------------------------------------

 NO OUTPUT CONTROL FOR STRESS PERIOD   15   TIME STEP   30



 STREAM LISTING     PERIOD     15   STEP       30

 LAYER ROW COL. STREAM  RCH.  FLOW INTO     FLOW TO   FLOW OUT OF   OVRLND.     DIRECT     STREAM       STREAM     STREAM     STREAM   STREAMBED  STREAMBED
                SEG.NO.  NO.  STRM. RCH.    AQUIFER    STRM. RCH.    RUNOFF     PRECIP       ET          HEAD       DEPTH      WIDTH   CONDCTNC.   GRADIENT

   1    1    1     1     1    7.3501E+01  4.1745E-01   7.3084E+01  0.000E+00  0.000E+00  0.000E+00  1.09473E+03  1.681E+00  1.982E+01  8.917E-02  1.560E+00
   1    2    2     1     2    7.3084E+01  6.4666E-01   7.2437E+01  0.000E+00  0.000E+00  0.000E+00  1.08973E+03  1.675E+00  1.976E+01  1.383E-01  1.558E+00
   1    3    3     1     3    7.2437E+01  5.5167E-01   7.1885E+01  0.000E+00  0.000E+00  0.000E+00  1.08409E+03  1.669E+00  1.969E+01  1.182E-01  1.556E+00
   1    3    4     1     4    7.1885E+01  5.0815E-01   7.1377E+01  0.000E+00  0.000E+00  0.000E+00  1.07907E+03  1.663E+00  1.963E+01  1.090E-01  1.554E+00
   1    4    5     2     1    6.9377E+01  4.0746E-01   6.8970E+01  0.000E+00  0.000E+00  0.000E+00  1.07416E+03  2.224E+00  1.200E+01  7.800E-02  1.741E+00
   1    5    6     2     2    6.8970E+01  3.1301E-01   6.8657E+01  0.000E+00  0.000E+00  0.000E+00  1.06873E+03  2.217E+00  1.200E+01  6.000E-02  1.739E+00
   1    6    6     2     3    6.8657E+01  3.1265E-01   6.8344E+01  0.000E+00  0.000E+00  0.000E+00  1.06400E+03  2.211E+00  1.200E+01  6.000E-02  1.737E+00
   1    7    6     2     4    6.8344E+01  3.1229E-01   6.8032E+01  0.000E+00  0.000E+00  0.000E+00  1.05928E+03  2.205E+00  1.200E+01  6.000E-02  1.735E+00
   1    8    6     2     5    6.8032E+01  3.1192E-01   6.7720E+01  0.000E+00  0.000E+00  0.000E+00  1.05456E+03  2.199E+00  1.200E+01  6.000E-02  1.733E+00
   1    3    5     3     1    2.0000E+00  2.8252E-01   1.7175E+00  0.000E+00  0.000E+00  0.000E+00  1.07555E+03  1.909E+00  9.636E+00  7.227E-02  1.955E+00
   1    3    6     3     2    1.7175E+00  2.4905E-01   1.4684E+00  0.000E+00  0.000E+00  0.000E+00  1.07264E+03  1.727E+00  8.909E+00  6.682E-02  1.864E+00
   1    3    7     3     3    1.4684E+00  1.9718E-01   1.2712E+00  0.000E+00  0.000E+00  0.000E+00  1.06987E+03  1.555E+00  8.218E+00  5.547E-02  1.777E+00
   1    4    8     3     4    1.2712E+00  2.2567E-01   1.0456E+00  0.000E+00  0.000E+00  0.000E+00  1.06682E+03  1.364E+00  7.455E+00  6.709E-02  1.682E+00
   1    5    8     3     5    1.0456E+00  1.5790E-01   8.8768E-01  0.000E+00  0.000E+00  0.000E+00  1.06362E+03  1.164E+00  6.655E+00  4.991E-02  1.582E+00
   1    6    8     3     6    8.8768E-01  5.5980E-02   8.3170E-01  0.000E+00  0.000E+00  0.000E+00  1.06158E+03  1.036E+00  6.145E+00  1.844E-02  1.518E+00
   1    5   10     4     1    1.0000E+01  9.0919E-02   9.9091E+00  0.000E+00  0.000E+00  0.000E+00  1.07836E+03  6.368E-01  1.000E+01  2.500E-02  1.212E+00
   1    5    9     4     2    9.9091E+00  1.8158E-01   9.7275E+00  0.000E+00  0.000E+00  0.000E+00  1.07154E+03  6.315E-01  1.000E+01  5.000E-02  1.211E+00
   1    6    8     4     3    9.7275E+00  1.2689E-01   9.6006E+00  0.000E+00  0.000E+00  0.000E+00  1.06381E+03  6.256E-01  1.000E+01  3.500E-02  1.209E+00
   1    6    8     5     1    1.0432E+01  2.2686E-01   1.0205E+01  0.000E+00  0.000E+00  0.000E+00  1.05868E+03  6.790E-01  1.542E+01  6.166E-02  1.226E+00
   1    7    7     5     2    1.0205E+01  2.7894E-01   9.9265E+00  0.000E+00  0.000E+00  0.000E+00  1.05417E+03  6.732E-01  1.519E+01  7.594E-02  1.224E+00
   1    8    7     5     3    9.9265E+00  1.9221E-01   9.7343E+00  0.000E+00  0.000E+00  0.000E+00  1.04992E+03  6.676E-01  1.497E+01  5.241E-02  1.223E+00
   1    8    6     5     4    9.7343E+00  1.3577E-01   9.5985E+00  0.000E+00  0.000E+00  0.000E+00  1.04691E+03  6.637E-01  1.482E+01  3.706E-02  1.221E+00
   1    9    6     6     1    7.7318E+01  3.2406E-01   7.6994E+01  0.000E+00  0.000E+00  0.000E+00  1.04513E+03  2.401E+00  1.200E+01  6.000E-02  1.800E+00
   1   10    7     6     2    7.6994E+01  3.2370E-01   7.6671E+01  0.000E+00  0.000E+00  0.000E+00  1.04058E+03  2.395E+00  1.200E+01  6.000E-02  1.798E+00
   1   11    7     6     3    7.6671E+01  3.2333E-01   7.6347E+01  0.000E+00  0.000E+00  0.000E+00  1.03603E+03  2.389E+00  1.200E+01  6.000E-02  1.796E+00
   1   12    7     6     4    7.6347E+01  3.2297E-01   7.6024E+01  0.000E+00  0.000E+00  0.000E+00  1.03147E+03  2.383E+00  1.200E+01  6.000E-02  1.794E+00
   1   13    7     6     5    7.6024E+01  2.9569E-02   7.5995E+01  0.000E+00  0.000E+00  0.000E+00  1.02829E+03  2.380E+00  1.200E+01  2.400E-02  4.107E-01
   1   14    9     7     1    1.5000E+02  1.3346E+00   1.4867E+02  0.000E+00  0.000E+00  0.000E+00  1.03987E+03  2.288E+00  5.529E+01  5.593E-01  7.954E-01
   1   13    8     7     2    1.4867E+02  1.8296E+00   1.4684E+02  0.000E+00  0.000E+00  0.000E+00  1.03478E+03  2.279E+00  5.526E+01  6.148E-01  9.920E-01
   1   13    7     7     3    1.4684E+02  1.4706E+00   1.4537E+02  0.000E+00  0.000E+00  0.000E+00  1.02969E+03  2.271E+00  5.522E+01  5.585E-01  8.778E-01
   1   13    6     8     1    2.2136E+02  1.1690E+00   2.2019E+02  0.000E+00  0.000E+00  0.000E+00  1.02513E+03  3.256E+00  4.721E+01  4.811E-01  8.099E-01
   1   13    5     8     2    2.2019E+02  3.5206E-01   2.1984E+02  0.000E+00  0.000E+00  0.000E+00  1.01888E+03  3.252E+00  4.715E+01  4.805E-01  2.442E-01
   1   13    4     8     3    2.1984E+02 -1.2243E+00   2.2106E+02  0.000E+00  0.000E+00  0.000E+00  1.01263E+03  3.254E+00  4.719E+01  4.809E+00 -8.487E-02
   1   13    3     8     4    2.2106E+02 -2.6035E+00   2.2367E+02  0.000E+00  0.000E+00  0.000E+00  1.00639E+03  3.265E+00  4.734E+01  4.824E+00 -1.799E-01
   1   13    2     8     5    2.2367E+02 -1.4569E+00   2.2512E+02  0.000E+00  0.000E+00  0.000E+00  1.00015E+03  3.276E+00  4.750E+01  4.841E+00 -1.003E-01
   1   13    1     8     6    2.2512E+02 -1.3358E+00   2.2646E+02  0.000E+00  0.000E+00  0.000E+00  9.95159E+02  3.284E+00  4.761E+01  2.911E+00 -1.529E-01
   1    8    6     9     1    0.0000E+00  0.0000E+00   0.0000E+00  0.000E+00  0.000E+00  0.000E+00  1.07875E+03  0.000E+00  4.000E+00  0.000E+00  1.000E+00
   1    8    5     9     2    0.0000E+00  0.0000E+00   0.0000E+00  0.000E+00  0.000E+00  0.000E+00  1.07825E+03  0.000E+00  4.000E+00  0.000E+00  1.000E+00





UNSATURATED ZONE PACKAGE VOLUMETRIC BUDGET FOR  TIME STEP    30 STRESS PERIOD   15
  ------------------------------------------------------------------------------



     CUMULATIVE VOLUMES      L**3       RATES FOR THIS TIME STEP      L**3/T
     ------------------                 ------------------------

           IN:                                      IN:
           ---                                      ---
        INFILTRATION =   435167805.6075          INFILTRATION =           0.8475

          OUT:                                     OUT:
          ----                                     ----
              UZF ET =   433984522.7877                UZF ET =           0.7500
        UZF RECHARGE =       73224.0000          UZF RECHARGE =       0.0000E+00

            IN - OUT =     1110058.8199              IN - OUT =       9.7500E-02

          STORAGE:                                 STORAGE:
          --------                                 --------
      STORAGE CHANGE =     1110058.7338        STORAGE CHANGE =       9.7500E-02

 PERCENT DISCREPANCY IS DIFFERENCE BETWEEN IN-OUT MINUS CHANGE IN STORAGE
 DIVIDED BY THE AVERAGE OF IN AND OUT TIMES 100

 PERCENT DISCREPANCY =           0.00     PERCENT DISCREPANCY =           0.00






1
  VOLUMETRIC BUDGET FOR AGRICULTURAL FIELDS AT  END OF TIME STEP   30, STRESS PERIOD  15
  ------------------------------------------------------------------------------

     CUMULATIVE VOLUMES      L**3       RATES FOR THIS TIME STEP      L**3/T
     ------------------                 ------------------------

           IN:                                      IN:
           ---                                      ---
               AG WELLS  =   403889344.0000                 AG WELLS  =           0.0000
      DIVERSION SEGMENTS =           0.0000        DIVERSION SEGMENTS =           0.0000
       IRRIGATION PONDS  =           0.0000         IRRIGATION PONDS  =           0.0000
           GW IRRIGATION =           0.0000             GW IRRIGATION =           0.0000
           SW IRRIGATION =           0.0000             SW IRRIGATION =           0.0000
        SYSTEM LOSSES GW =           0.0000          SYSTEM LOSSES GW =           0.0000
        SYSTEM LOSSES SW =           0.0000          SYSTEM LOSSES SW =           0.0000

                TOTAL IN =   403889344.0000                  TOTAL IN =           0.0000

          OUT:                                     OUT:
          ----                                     ----
               AG WELLS  =           0.0000                 AG WELLS  =           0.0000
      DIVERSION SEGMENTS =           0.0000        DIVERSION SEGMENTS =           0.0000
       IRRIGATION PONDS  =           0.0000         IRRIGATION PONDS  =           0.0000
           GW IRRIGATION =   403889344.0000             GW IRRIGATION =           0.0000
           SW IRRIGATION =           0.0000             SW IRRIGATION =           0.0000
        SYSTEM LOSSES GW =           0.0000          SYSTEM LOSSES GW =           0.0000
        SYSTEM LOSSES SW =           0.0000          SYSTEM LOSSES SW =           0.0000

               TOTAL OUT =   403889344.0000                 TOTAL OUT =           0.0000

                IN - OUT =           0.0000                  IN - OUT =           0.0000

     PERCENT DISCREPANCY =           0.00         PERCENT DISCREPANCY =           0.00



1
  VOLUMETRIC BUDGET FOR ENTIRE MODEL AT END OF TIME STEP   30, STRESS PERIOD  15
  ------------------------------------------------------------------------------

     CUMULATIVE VOLUMES      L**3       RATES FOR THIS TIME STEP      L**3/T
     ------------------                 ------------------------

           IN:                                      IN:
           ---                                      ---
             STORAGE     =   567684928.0000               STORAGE     =           4.1407
       CONSTANT HEAD     =           0.0000         CONSTANT HEAD     =           0.0000
     HEAD DEP BOUNDS     =    10544478.0000       HEAD DEP BOUNDS     =           0.2857
      STREAM LEAKAGE     =   441502784.0000        STREAM LEAKAGE     =          13.6622
        UZF RECHARGE     =       73223.9531          UZF RECHARGE     =           0.0000
               GW ET     =           0.0000                 GW ET     =           0.0000
     SURFACE LEAKAGE     =           0.0000       SURFACE LEAKAGE     =           0.0000
           AG WELLS      =           0.0000             AG WELLS      =           0.0000

                TOTAL IN =  1019805376.0000                  TOTAL IN =          18.0886

          OUT:                                     OUT:
          ----                                     ----
             STORAGE     =   207171840.0000               STORAGE     =          11.1785
       CONSTANT HEAD     =           0.0000         CONSTANT HEAD     =           0.0000
     HEAD DEP BOUNDS     =    10781044.0000       HEAD DEP BOUNDS     =           0.2895
      STREAM LEAKAGE     =   391299808.0000        STREAM LEAKAGE     =           6.6206
        UZF RECHARGE     =           0.0000          UZF RECHARGE     =           0.0000
               GW ET     =     6666090.0000                 GW ET     =           0.0000
     SURFACE LEAKAGE     =           0.0000       SURFACE LEAKAGE     =           0.0000
           AG WELLS      =   403889344.0000             AG WELLS      =           0.0000

               TOTAL OUT =  1019808128.0000                 TOTAL OUT =          18.0885

                IN - OUT =       -2752.0000                  IN - OUT =       2.8610E-05

     PERCENT DISCREPANCY =          -0.00         PERCENT DISCREPANCY =           0.00






         TIME SUMMARY AT END OF TIME STEP   30 IN STRESS PERIOD   15
                    SECONDS     MINUTES      HOURS       DAYS        YEARS
                    -----------------------------------------------------------
   TIME STEP LENGTH  87667.      1461.1      24.352      1.0147     2.77799E-03
 STRESS PERIOD TIME 2.63000E+06  43833.      730.56      30.440     8.33397E-02
         TOTAL TIME 3.69063E+07 6.15106E+05  10252.      427.16      1.1695    
1
1
                            STRESS PERIOD NO.   16, LENGTH =   2630000.    
                            -----------------------------------------------

                              NUMBER OF TIME STEPS =    30

                               MULTIPLIER FOR DELT =     1.000

                            INITIAL TIME STEP SIZE =   87666.66    

 REUSING NON-PARAMETER GHB CELLS FROM LAST STRESS PERIOD

      2 GHB CELLS

 REUSING STREAM SEGMENT DATA FROM LAST STRESS PERIOD



            AREAL INFILTRATION RATE
 READING ON UNIT   19 WITH FORMAT: (FREE)              

            1           2           3           4           5           6           7           8           9          10
 ........................................................................................................................
   1   1.0000E-10  2.0000E-10   0.000       0.000       0.000       0.000       0.000       0.000       0.000       0.000    
   2   2.0000E-10  1.0000E-10  2.0000E-10   0.000       0.000      8.0000E-10  8.0000E-10  5.0000E-10   0.000       0.000    
   3    0.000      5.0000E-10  1.0000E-10  1.0000E-10  8.0000E-10  8.0000E-10  5.0000E-10  5.0000E-10   0.000       0.000    
   4   8.0000E-10  5.0000E-10  1.0000E-10  1.0000E-10  1.0000E-10  1.0000E-10  1.0000E-10  1.0000E-10  2.0000E-10   0.000    
   5   8.0000E-10  5.0000E-10  1.0000E-10  1.0000E-10  1.0000E-10  1.0000E-10  1.0000E-10  1.0000E-10  1.0000E-10  1.0000E-10
   6   8.0000E-10  5.0000E-10  5.0000E-10  2.0000E-10  2.0000E-10  1.0000E-10  1.0000E-10  1.0000E-10  1.0000E-10  5.0000E-10
   7   8.0000E-10  5.0000E-10  5.0000E-10  2.0000E-10  2.0000E-10  1.0000E-10  1.0000E-10  2.0000E-10  2.0000E-10   0.000    
   8    0.000      5.0000E-10  5.0000E-10  2.0000E-10  2.0000E-10  1.0000E-10  1.0000E-10  2.0000E-10  5.0000E-10   0.000    
   9    0.000      5.0000E-10  5.0000E-10  2.0000E-10  2.0000E-10  1.0000E-10  1.0000E-10  2.0000E-10  5.0000E-10   0.000    
  10    0.000      5.0000E-10  5.0000E-10  2.0000E-10  2.0000E-10  1.0000E-10  1.0000E-10  2.0000E-10  5.0000E-10  8.0000E-10
  11    0.000      1.0000E-10  1.0000E-10  1.0000E-10  1.0000E-10  1.0000E-10  1.0000E-10  2.0000E-10  5.0000E-10   0.000    
  12   1.0000E-10  1.0000E-10  1.0000E-10  1.0000E-10  1.0000E-10  1.0000E-10  1.0000E-10  1.0000E-10  2.0000E-10   0.000    
  13   1.0000E-10  1.0000E-10  2.0000E-10  2.0000E-10  2.0000E-10  2.0000E-10  2.0000E-10  1.0000E-10  1.0000E-10   0.000    
  14    0.000      2.0000E-10  5.0000E-10  5.0000E-10  5.0000E-10  5.0000E-10  5.0000E-10  2.0000E-10  1.0000E-10   0.000    
  15    0.000       0.000      8.0000E-10  8.0000E-10  8.0000E-10  8.0000E-10   0.000       0.000       0.000       0.000    

                  ET RATE =  5.000000E-10

 USING ET EXTINCTION DEPTH FROM PREVIOUS STRESS PERIOD. CURRENT PERIOD IS:      16

 USING EXTINCTION WATER CONTENT FROM PREVIOUS STRESS PERIOD. CURRENT PERIOD IS:      16

 USING AIR ENTRY PRESSURE FROM PREVIOUS STRESS PERIOD. CURRENT PERIOD IS:      16

 USING ROOT PRESSURE HEAD FROM PREVIOUS STRESS PERIOD. CURRENT PERIOD IS:      16

 USING ROOT ACTIVITY FROM PREVIOUS STRESS PERIOD. CURRENT PERIOD IS:      16

 PROCESSING AG STRESS PERIOD DATA

 READING AG STRESS PERIOD DATA

 READING IRRIGATION SEGMENT

 READING IRRIGATION WELL

 READING SUPPLEMENTAL WELL

 NO IRRPOND OR REUSING IRRPOND DATA FROM LAST STRESS PERIOD

 END PROCESSING AG STRESS PERIOD DATA OPTIONS
 
 SOLVING FOR HEAD 
                                                   Max.-Head-Change                         Max.-Flux-Residual
  Residual-Control   Outer-Iter.   Inner-Iter.     Column Row Layer    Maximum-Head-Change  Column Row Layer    Maximum-Flux-Residual          L2-NORM 
          0                 1           2             4   13     1       0.1979187993E-01       4   13    1         0.1142996517E+01      0.2615479713E+01
          0                 2           2             4   13     1      -0.1904460129E-02       4   13    1        -0.1130870615E+00      0.2566190783E+00
          0                 3           2             4   13     1       0.1277462330E-03       4   13    1         0.7799432543E-02      0.1750826648E-01
          0                 4           1             4   13     1      -0.4953192545E-05       4   13    1        -0.3109695781E-03      0.6871513363E-03

    ------------------------------------------------
       NWT REQUIRED            4 OUTER ITERATIONS 
       AND A TOTAL OF          7 INNER ITERATIONS.
    ------------------------------------------------

 NO OUTPUT CONTROL FOR STRESS PERIOD   16   TIME STEP    1
 
 SOLVING FOR HEAD 
                                                   Max.-Head-Change                         Max.-Flux-Residual
  Residual-Control   Outer-Iter.   Inner-Iter.     Column Row Layer    Maximum-Head-Change  Column Row Layer    Maximum-Flux-Residual          L2-NORM 
          0                 1           2             2   13     1       0.1812403867E-01       4   13    1         0.1028813949E+01      0.2480613509E+01
          0                 2           2             4   13     1      -0.1715015698E-02       4   13    1        -0.1017877827E+00      0.2437061726E+00
          0                 3           1             4   13     1       0.1150460000E-03       4   13    1         0.7020545089E-02      0.1665808488E-01
          0                 4           1             4   13     1      -0.4477221658E-05       4   13    1        -0.2809389416E-03      0.6573355760E-03

    ------------------------------------------------
       NWT REQUIRED            4 OUTER ITERATIONS 
       AND A TOTAL OF          6 INNER ITERATIONS.
    ------------------------------------------------

 NO OUTPUT CONTROL FOR STRESS PERIOD   16   TIME STEP    2
 
 SOLVING FOR HEAD 
                                                   Max.-Head-Change                         Max.-Flux-Residual
  Residual-Control   Outer-Iter.   Inner-Iter.     Column Row Layer    Maximum-Head-Change  Column Row Layer    Maximum-Flux-Residual          L2-NORM 
          0                 1           2             2   13     1       0.1668749461E-01       2   13    1         0.9446917029E+00      0.2361025097E+01
          0                 2           2             2   13     1      -0.1547115711E-02       4   13    1        -0.9166067760E-01      0.2322640951E+00
          0                 3           1             4   13     1       0.1036219782E-03       4   13    1         0.6320123994E-02      0.1590447033E-01
          0                 4           1             4   13     1      -0.4002912983E-05       4   13    1        -0.2510322820E-03      0.6279196287E-03

    ------------------------------------------------
       NWT REQUIRED            4 OUTER ITERATIONS 
       AND A TOTAL OF          6 INNER ITERATIONS.
    ------------------------------------------------

 NO OUTPUT CONTROL FOR STRESS PERIOD   16   TIME STEP    3
 
 SOLVING FOR HEAD 
                                                   Max.-Head-Change                         Max.-Flux-Residual
  Residual-Control   Outer-Iter.   Inner-Iter.     Column Row Layer    Maximum-Head-Change  Column Row Layer    Maximum-Flux-Residual          L2-NORM 
          0                 1           2             2   13     1       0.1536531530E-01       2   13    1         0.8697617889E+00      0.2255056766E+01
          0                 2           2             2   13     1      -0.1425506104E-02       2   13    1        -0.8294656120E-01      0.2221312710E+00
          0                 3           1             4   13     1       0.9342358934E-04       4   13    1         0.5695075636E-02      0.1523854275E-01

    ------------------------------------------------
       NWT REQUIRED            3 OUTER ITERATIONS 
       AND A TOTAL OF          5 INNER ITERATIONS.
    ------------------------------------------------

 NO OUTPUT CONTROL FOR STRESS PERIOD   16   TIME STEP    4
 
 SOLVING FOR HEAD 
                                                   Max.-Head-Change                         Max.-Flux-Residual
  Residual-Control   Outer-Iter.   Inner-Iter.     Column Row Layer    Maximum-Head-Change  Column Row Layer    Maximum-Flux-Residual          L2-NORM 
          0                 1           2             2   13     1       0.1414813537E-01       2   13    1         0.8007842936E+00      0.2161144359E+01
          0                 2           2             2   13     1      -0.1313409808E-02       2   13    1        -0.7641617565E-01      0.2131535299E+00
          0                 3           1             4   13     1       0.8426489807E-04       4   13    1         0.5134104310E-02      0.1464274796E-01

    ------------------------------------------------
       NWT REQUIRED            3 OUTER ITERATIONS 
       AND A TOTAL OF          5 INNER ITERATIONS.
    ------------------------------------------------

 NO OUTPUT CONTROL FOR STRESS PERIOD   16   TIME STEP    5
 
 SOLVING FOR HEAD 
                                                   Max.-Head-Change                         Max.-Flux-Residual
  Residual-Control   Outer-Iter.   Inner-Iter.     Column Row Layer    Maximum-Head-Change  Column Row Layer    Maximum-Flux-Residual          L2-NORM 
          0                 1           2             2   13     1       0.1302804317E-01       2   13    1         0.7373109858E+00      0.2077953572E+01
          0                 2           2             2   13     1      -0.1210205699E-02       2   13    1        -0.7040267683E-01      0.2052527816E+00
          0                 3           1             2   13     1       0.7714437146E-04       4   13    1         0.4630295872E-02      0.1412924948E-01

    ------------------------------------------------
       NWT REQUIRED            3 OUTER ITERATIONS 
       AND A TOTAL OF          5 INNER ITERATIONS.
    ------------------------------------------------

 NO OUTPUT CONTROL FOR STRESS PERIOD   16   TIME STEP    6
 
 SOLVING FOR HEAD 
                                                   Max.-Head-Change                         Max.-Flux-Residual
  Residual-Control   Outer-Iter.   Inner-Iter.     Column Row Layer    Maximum-Head-Change  Column Row Layer    Maximum-Flux-Residual          L2-NORM 
          0                 1           2             2   13     1       0.1199720791E-01       2   13    1         0.6789001202E+00      0.2004186679E+01
          0                 2           2             2   13     1      -0.1115050746E-02       2   13    1        -0.6486097545E-01      0.1981539877E+00
          0                 3           1             4    7     1       0.7355265019E-04       2   13    1         0.4252926202E-02      0.1366227347E-01

    ------------------------------------------------
       NWT REQUIRED            3 OUTER ITERATIONS 
       AND A TOTAL OF          5 INNER ITERATIONS.
    ------------------------------------------------

 NO OUTPUT CONTROL FOR STRESS PERIOD   16   TIME STEP    7
 
 SOLVING FOR HEAD 
                                                   Max.-Head-Change                         Max.-Flux-Residual
  Residual-Control   Outer-Iter.   Inner-Iter.     Column Row Layer    Maximum-Head-Change  Column Row Layer    Maximum-Flux-Residual          L2-NORM 
          0                 1           2             2   13     1       0.1104862168E-01       2   13    1         0.6251509863E+00      0.1938753055E+01
          0                 2           2             4    7     1      -0.1070881372E-02       2   13    1        -0.5975822290E-01      0.1919000710E+00
          0                 3           1             4    7     1       0.7292302793E-04       4    7    1         0.4038677157E-02      0.1325125311E-01

    ------------------------------------------------
       NWT REQUIRED            3 OUTER ITERATIONS 
       AND A TOTAL OF          5 INNER ITERATIONS.
    ------------------------------------------------

 NO OUTPUT CONTROL FOR STRESS PERIOD   16   TIME STEP    8
 
 SOLVING FOR HEAD 
                                                   Max.-Head-Change                         Max.-Flux-Residual
  Residual-Control   Outer-Iter.   Inner-Iter.     Column Row Layer    Maximum-Head-Change  Column Row Layer    Maximum-Flux-Residual          L2-NORM 
          0                 1           2             4    7     1       0.1091551420E-01       2   13    1         0.5756956754E+00      0.1880642447E+01
          0                 2           2             4    7     1      -0.1061784181E-02       4    7    1        -0.5720180981E-01      0.1863444355E+00
          0                 3           1             4    7     1       0.7230354357E-04       4    7    1         0.4004126947E-02      0.1288582857E-01

    ------------------------------------------------
       NWT REQUIRED            3 OUTER ITERATIONS 
       AND A TOTAL OF          5 INNER ITERATIONS.
    ------------------------------------------------

 NO OUTPUT CONTROL FOR STRESS PERIOD   16   TIME STEP    9
 
 SOLVING FOR HEAD 
                                                   Max.-Head-Change                         Max.-Flux-Residual
  Residual-Control   Outer-Iter.   Inner-Iter.     Column Row Layer    Maximum-Head-Change  Column Row Layer    Maximum-Flux-Residual          L2-NORM 
          0                 1           2             4    7     1       0.1082347996E-01       4    7    1         0.5671601917E+00      0.1828957883E+01
          0                 2           2             4    7     1      -0.1052831710E-02       4    7    1        -0.5671617066E-01      0.1814108760E+00
          0                 3           1             4    7     1       0.7169391429E-04       4    7    1         0.3970132230E-02      0.1256192019E-01

    ------------------------------------------------
       NWT REQUIRED            3 OUTER ITERATIONS 
       AND A TOTAL OF          5 INNER ITERATIONS.
    ------------------------------------------------

 NO OUTPUT CONTROL FOR STRESS PERIOD   16   TIME STEP   10
 
 SOLVING FOR HEAD 
                                                   Max.-Head-Change                         Max.-Flux-Residual
  Residual-Control   Outer-Iter.   Inner-Iter.     Column Row Layer    Maximum-Head-Change  Column Row Layer    Maximum-Flux-Residual          L2-NORM 
          0                 1           2             4    7     1       0.1073275237E-01       4    7    1         0.5623736078E+00      0.1782868742E+01
          0                 2           2             4    7     1      -0.1044006341E-02       4    7    1        -0.5623750904E-01      0.1769886200E+00
          0                 3           1             4    7     1       0.7109293991E-04       4    7    1         0.3936625926E-02      0.1227006843E-01

    ------------------------------------------------
       NWT REQUIRED            3 OUTER ITERATIONS 
       AND A TOTAL OF          5 INNER ITERATIONS.
    ------------------------------------------------

 NO OUTPUT CONTROL FOR STRESS PERIOD   16   TIME STEP   11
 
 SOLVING FOR HEAD 
                                                   Max.-Head-Change                         Max.-Flux-Residual
  Residual-Control   Outer-Iter.   Inner-Iter.     Column Row Layer    Maximum-Head-Change  Column Row Layer    Maximum-Flux-Residual          L2-NORM 
          0                 1           2             4    7     1       0.1064343399E-01       4    7    1         0.5576621352E+00      0.1741670242E+01
          0                 2           2             4    7     1      -0.1035318052E-02       4    7    1        -0.5576635865E-01      0.1730402868E+00
          0                 3           1             4    7     1       0.7050130004E-04       4    7    1         0.3903645414E-02      0.1200946645E-01

    ------------------------------------------------
       NWT REQUIRED            3 OUTER ITERATIONS 
       AND A TOTAL OF          5 INNER ITERATIONS.
    ------------------------------------------------

 NO OUTPUT CONTROL FOR STRESS PERIOD   16   TIME STEP   12
 
 SOLVING FOR HEAD 
                                                   Max.-Head-Change                         Max.-Flux-Residual
  Residual-Control   Outer-Iter.   Inner-Iter.     Column Row Layer    Maximum-Head-Change  Column Row Layer    Maximum-Flux-Residual          L2-NORM 
          0                 1           2             4    7     1       0.1055535190E-01       4    7    1         0.5530163638E+00      0.1704739072E+01
          0                 2           2             4    7     1      -0.1026750021E-02       4    7    1        -0.5530177844E-01      0.1694981426E+00
          0                 3           1             4    7     1       0.6991784966E-04       4    7    1         0.3871124816E-02      0.1177593435E-01

    ------------------------------------------------
       NWT REQUIRED            3 OUTER ITERATIONS 
       AND A TOTAL OF          5 INNER ITERATIONS.
    ------------------------------------------------

 NO OUTPUT CONTROL FOR STRESS PERIOD   16   TIME STEP   13
 
 SOLVING FOR HEAD 
                                                   Max.-Head-Change                         Max.-Flux-Residual
  Residual-Control   Outer-Iter.   Inner-Iter.     Column Row Layer    Maximum-Head-Change  Column Row Layer    Maximum-Flux-Residual          L2-NORM 
          0                 1           2             4    7     1       0.1046873792E-01       4    7    1         0.5484494207E+00      0.1671516518E+01
          0                 2           2             4    7     1      -0.1018324798E-02       4    7    1        -0.5484508116E-01      0.1663058552E+00
          0                 3           1             4    7     1       0.6934412418E-04       4    7    1         0.3839156029E-02      0.1156420848E-01

    ------------------------------------------------
       NWT REQUIRED            3 OUTER ITERATIONS 
       AND A TOTAL OF          5 INNER ITERATIONS.
    ------------------------------------------------

 NO OUTPUT CONTROL FOR STRESS PERIOD   16   TIME STEP   14
 
 SOLVING FOR HEAD 
                                                   Max.-Head-Change                         Max.-Flux-Residual
  Residual-Control   Outer-Iter.   Inner-Iter.     Column Row Layer    Maximum-Head-Change  Column Row Layer    Maximum-Flux-Residual          L2-NORM 
          0                 1           2             4    7     1       0.1038328395E-01       4    7    1         0.5439438674E+00      0.1641535859E+01
          0                 2           2             4    7     1      -0.1010012415E-02       4    7    1        -0.5439452295E-01      0.1634212899E+00
          0                 3           1             4    7     1       0.6877808195E-04       4    7    1         0.3807616961E-02      0.1137219903E-01

    ------------------------------------------------
       NWT REQUIRED            3 OUTER ITERATIONS 
       AND A TOTAL OF          5 INNER ITERATIONS.
    ------------------------------------------------

 NO OUTPUT CONTROL FOR STRESS PERIOD   16   TIME STEP   15
 
 SOLVING FOR HEAD 
                                                   Max.-Head-Change                         Max.-Flux-Residual
  Residual-Control   Outer-Iter.   Inner-Iter.     Column Row Layer    Maximum-Head-Change  Column Row Layer    Maximum-Flux-Residual          L2-NORM 
          0                 1           2             4    7     1       0.1029896051E-01       4    7    1         0.5394984591E+00      0.1614351467E+01
          0                 2           2             4    7     1      -0.1001810001E-02       4    7    1        -0.5394997932E-01      0.1608013315E+00
          0                 3           1             4    7     1       0.6821952853E-04       4    7    1         0.3776498919E-02      0.1119805516E-01

    ------------------------------------------------
       NWT REQUIRED            3 OUTER ITERATIONS 
       AND A TOTAL OF          5 INNER ITERATIONS.
    ------------------------------------------------

 NO OUTPUT CONTROL FOR STRESS PERIOD   16   TIME STEP   16
 
 SOLVING FOR HEAD 
                                                   Max.-Head-Change                         Max.-Flux-Residual
  Residual-Control   Outer-Iter.   Inner-Iter.     Column Row Layer    Maximum-Head-Change  Column Row Layer    Maximum-Flux-Residual          L2-NORM 
          0                 1           2             4    7     1       0.1021600504E-01       4    7    1         0.5351263959E+00      0.1589613635E+01
          0                 2           2             4    7     1      -0.9937406563E-03       4    7    1        -0.5351277029E-01      0.1584125725E+00
          0                 3           1             4    7     1       0.6767003662E-04       4    7    1         0.3745894303E-02      0.1103873795E-01

    ------------------------------------------------
       NWT REQUIRED            3 OUTER ITERATIONS 
       AND A TOTAL OF          5 INNER ITERATIONS.
    ------------------------------------------------

 NO OUTPUT CONTROL FOR STRESS PERIOD   16   TIME STEP   17
 
 SOLVING FOR HEAD 
                                                   Max.-Head-Change                         Max.-Flux-Residual
  Residual-Control   Outer-Iter.   Inner-Iter.     Column Row Layer    Maximum-Head-Change  Column Row Layer    Maximum-Flux-Residual          L2-NORM 
          0                 1           2             4    7     1       0.1013411178E-01       4    7    1         0.5308105301E+00      0.1566993258E+01
          0                 2           2             4    7     1      -0.9857746365E-03       4    7    1        -0.5308118106E-01      0.1562245693E+00
          0                 3           1             4    7     1       0.6712758042E-04       4    7    1         0.3715683071E-02      0.1089242274E-01

    ------------------------------------------------
       NWT REQUIRED            3 OUTER ITERATIONS 
       AND A TOTAL OF          5 INNER ITERATIONS.
    ------------------------------------------------

 NO OUTPUT CONTROL FOR STRESS PERIOD   16   TIME STEP   18
 
 SOLVING FOR HEAD 
                                                   Max.-Head-Change                         Max.-Flux-Residual
  Residual-Control   Outer-Iter.   Inner-Iter.     Column Row Layer    Maximum-Head-Change  Column Row Layer    Maximum-Flux-Residual          L2-NORM 
          0                 1           2             4    7     1       0.1005338988E-01       4    7    1         0.5265571036E+00      0.1546218149E+01
          0                 2           2             4    7     1      -0.9779225582E-03       4    7    1        -0.5265583583E-01      0.1542103344E+00
          0                 3           1             4    7     1       0.6659288343E-04       4    7    1         0.3685908901E-02      0.1075706027E-01

    ------------------------------------------------
       NWT REQUIRED            3 OUTER ITERATIONS 
       AND A TOTAL OF          5 INNER ITERATIONS.
    ------------------------------------------------

 NO OUTPUT CONTROL FOR STRESS PERIOD   16   TIME STEP   19
 
 SOLVING FOR HEAD 
                                                   Max.-Head-Change                         Max.-Flux-Residual
  Residual-Control   Outer-Iter.   Inner-Iter.     Column Row Layer    Maximum-Head-Change  Column Row Layer    Maximum-Flux-Residual          L2-NORM 
          0                 1           2             4    7     1       0.9973806519E-02       4    7    1         0.5223644097E+00      0.1527050144E+01
          0                 2           2             4    7     1      -0.9701812308E-03       4    7    1        -0.5223656396E-01      0.1523486711E+00
          0                 3           1             4    7     1       0.6606572863E-04       4    7    1         0.3656559907E-02      0.1063176422E-01

    ------------------------------------------------
       NWT REQUIRED            3 OUTER ITERATIONS 
       AND A TOTAL OF          5 INNER ITERATIONS.
    ------------------------------------------------

 NO OUTPUT CONTROL FOR STRESS PERIOD   16   TIME STEP   20
 
 SOLVING FOR HEAD 
                                                   Max.-Head-Change                         Max.-Flux-Residual
  Residual-Control   Outer-Iter.   Inner-Iter.     Column Row Layer    Maximum-Head-Change  Column Row Layer    Maximum-Flux-Residual          L2-NORM 
          0                 1           2             4    7     1       0.9895201966E-02       4    7    1         0.5182233817E+00      0.1509280337E+01
          0                 2           2             4    7     1      -0.9625351148E-03       4    7    1        -0.5182245872E-01      0.1506190631E+00
          0                 3           1             4    7     1       0.6554505678E-04       4    7    1         0.3627572532E-02      0.1051479217E-01

    ------------------------------------------------
       NWT REQUIRED            3 OUTER ITERATIONS 
       AND A TOTAL OF          5 INNER ITERATIONS.
    ------------------------------------------------

 NO OUTPUT CONTROL FOR STRESS PERIOD   16   TIME STEP   21
 
 SOLVING FOR HEAD 
                                                   Max.-Head-Change                         Max.-Flux-Residual
  Residual-Control   Outer-Iter.   Inner-Iter.     Column Row Layer    Maximum-Head-Change  Column Row Layer    Maximum-Flux-Residual          L2-NORM 
          0                 1           2             4    7     1       0.9817821122E-02       4    7    1         0.5141478347E+00      0.1492747116E+01
          0                 2           2             4    7     1      -0.9550080336E-03       4    7    1        -0.5141490164E-01      0.1490070183E+00
          0                 3           1             4    7     1       0.6503249063E-04       4    7    1         0.3599043545E-02      0.1040589210E-01

    ------------------------------------------------
       NWT REQUIRED            3 OUTER ITERATIONS 
       AND A TOTAL OF          5 INNER ITERATIONS.
    ------------------------------------------------

 NO OUTPUT CONTROL FOR STRESS PERIOD   16   TIME STEP   22
 
 SOLVING FOR HEAD 
                                                   Max.-Head-Change                         Max.-Flux-Residual
  Residual-Control   Outer-Iter.   Inner-Iter.     Column Row Layer    Maximum-Head-Change  Column Row Layer    Maximum-Flux-Residual          L2-NORM 
          0                 1           2             4    7     1       0.9741361617E-02       4    7    1         0.5101210034E+00      0.1477287342E+01
          0                 2           2             4    7     1      -0.9475705744E-03       4    7    1        -0.5101221621E-01      0.1474959658E+00
          0                 3           1             4    7     1       0.6452602770E-04       4    7    1         0.3570855582E-02      0.1030357359E-01

    ------------------------------------------------
       NWT REQUIRED            3 OUTER ITERATIONS 
       AND A TOTAL OF          5 INNER ITERATIONS.
    ------------------------------------------------

 NO OUTPUT CONTROL FOR STRESS PERIOD   16   TIME STEP   23
 
 SOLVING FOR HEAD 
                                                   Max.-Head-Change                         Max.-Flux-Residual
  Residual-Control   Outer-Iter.   Inner-Iter.     Column Row Layer    Maximum-Head-Change  Column Row Layer    Maximum-Flux-Residual          L2-NORM 
          0                 1           2             4    7     1       0.9665935457E-02       4    7    1         0.5061493079E+00      0.1462760762E+01
          0                 2           2             4    7     1      -0.9402336326E-03       4    7    1        -0.5061504443E-01      0.1460748870E+00
          0                 3           1             4    7     1       0.6402640924E-04       4    7    1         0.3543053561E-02      0.1020690462E-01

    ------------------------------------------------
       NWT REQUIRED            3 OUTER ITERATIONS 
       AND A TOTAL OF          5 INNER ITERATIONS.
    ------------------------------------------------

 NO OUTPUT CONTROL FOR STRESS PERIOD   16   TIME STEP   24
 
 SOLVING FOR HEAD 
                                                   Max.-Head-Change                         Max.-Flux-Residual
  Residual-Control   Outer-Iter.   Inner-Iter.     Column Row Layer    Maximum-Head-Change  Column Row Layer    Maximum-Flux-Residual          L2-NORM 
          0                 1           2             4    7     1       0.9591521208E-02       4    7    1         0.5022311896E+00      0.1449069597E+01
          0                 2           2             4    7     1      -0.9329951230E-03       4    7    1        -0.5022323040E-01      0.1447321413E+00
          0                 3           1             4    7     1       0.6353349419E-04       4    7    1         0.3515626593E-02      0.1011523501E-01

    ------------------------------------------------
       NWT REQUIRED            3 OUTER ITERATIONS 
       AND A TOTAL OF          5 INNER ITERATIONS.
    ------------------------------------------------

 NO OUTPUT CONTROL FOR STRESS PERIOD   16   TIME STEP   25
 
 SOLVING FOR HEAD 
                                                   Max.-Head-Change                         Max.-Flux-Residual
  Residual-Control   Outer-Iter.   Inner-Iter.     Column Row Layer    Maximum-Head-Change  Column Row Layer    Maximum-Flux-Residual          L2-NORM 
          0                 1           2             4    7     1       0.9518094605E-02       4    7    1         0.4983655375E+00      0.1436112032E+01
          0                 2           2             4    7     1      -0.9258526855E-03       4    7    1        -0.4983666307E-01      0.1434589301E+00
          0                 3           1             4    7     1       0.6304712127E-04       4    7    1         0.3488566898E-02      0.1002816652E-01

    ------------------------------------------------
       NWT REQUIRED            3 OUTER ITERATIONS 
       AND A TOTAL OF          5 INNER ITERATIONS.
    ------------------------------------------------

 NO OUTPUT CONTROL FOR STRESS PERIOD   16   TIME STEP   26
 
 SOLVING FOR HEAD 
                                                   Max.-Head-Change                         Max.-Flux-Residual
  Residual-Control   Outer-Iter.   Inner-Iter.     Column Row Layer    Maximum-Head-Change  Column Row Layer    Maximum-Flux-Residual          L2-NORM 
          0                 1           2             4    7     1       0.9445626985E-02       4    7    1         0.4945510930E+00      0.1423797526E+01
          0                 2           2             4    7     1      -0.9188035312E-03       4    7    1        -0.4945521656E-01      0.1422474870E+00
          0                 3           1             4    7     1       0.6256709983E-04       4    7    1         0.3461865633E-02      0.9944947471E-02

    ------------------------------------------------
       NWT REQUIRED            3 OUTER ITERATIONS 
       AND A TOTAL OF          5 INNER ITERATIONS.
    ------------------------------------------------

 NO OUTPUT CONTROL FOR STRESS PERIOD   16   TIME STEP   27
 
 SOLVING FOR HEAD 
                                                   Max.-Head-Change                         Max.-Flux-Residual
  Residual-Control   Outer-Iter.   Inner-Iter.     Column Row Layer    Maximum-Head-Change  Column Row Layer    Maximum-Flux-Residual          L2-NORM 
          0                 1           2             4    7     1       0.9374099642E-02       4    7    1         0.4907863704E+00      0.1412061531E+01
          0                 2           2             4    7     1      -0.9118458414E-03       4    7    1        -0.4907874228E-01      0.1410908803E+00
          0                 3           1             4    7     1       0.6209330740E-04       4    7    1         0.3435512444E-02      0.9865694073E-02

    ------------------------------------------------
       NWT REQUIRED            3 OUTER ITERATIONS 
       AND A TOTAL OF          5 INNER ITERATIONS.
    ------------------------------------------------

 NO OUTPUT CONTROL FOR STRESS PERIOD   16   TIME STEP   28
 
 SOLVING FOR HEAD 
                                                   Max.-Head-Change                         Max.-Flux-Residual
  Residual-Control   Outer-Iter.   Inner-Iter.     Column Row Layer    Maximum-Head-Change  Column Row Layer    Maximum-Flux-Residual          L2-NORM 
          0                 1           2             4    7     1       0.9303353596E-02       4    7    1         0.4870630328E+00      0.1400836535E+01
          0                 2           2             4    7     1      -0.9049641508E-03       4    7    1        -0.4870640653E-01      0.1399831072E+00
          0                 3           1             4    7     1       0.6162469018E-04       4    7    1         0.3409448957E-02      0.9789644236E-02

    ------------------------------------------------
       NWT REQUIRED            3 OUTER ITERATIONS 
       AND A TOTAL OF          5 INNER ITERATIONS.
    ------------------------------------------------

 NO OUTPUT CONTROL FOR STRESS PERIOD   16   TIME STEP   29
 
 SOLVING FOR HEAD 
                                                   Max.-Head-Change                         Max.-Flux-Residual
  Residual-Control   Outer-Iter.   Inner-Iter.     Column Row Layer    Maximum-Head-Change  Column Row Layer    Maximum-Flux-Residual          L2-NORM 
          0                 1           2             4    7     1       0.9233609945E-02       4    7    1         0.4833949378E+00      0.1358439971E+01
          0                 2           2             4    7     1      -0.8981799674E-03       4    7    1        -0.4833959514E-01      0.1358337706E+00
          0                 3           1             4    7     1       0.6116271271E-04       4    7    1         0.3383772163E-02      0.9507474171E-02

    ------------------------------------------------
       NWT REQUIRED            3 OUTER ITERATIONS 
       AND A TOTAL OF          5 INNER ITERATIONS.
    ------------------------------------------------

 NO OUTPUT CONTROL FOR STRESS PERIOD   16   TIME STEP   30



 STREAM LISTING     PERIOD     16   STEP       30

 LAYER ROW COL. STREAM  RCH.  FLOW INTO     FLOW TO   FLOW OUT OF   OVRLND.     DIRECT     STREAM       STREAM     STREAM     STREAM   STREAMBED  STREAMBED
                SEG.NO.  NO.  STRM. RCH.    AQUIFER    STRM. RCH.    RUNOFF     PRECIP       ET          HEAD       DEPTH      WIDTH   CONDCTNC.   GRADIENT

   1    1    1     1     1    6.6341E+01  3.9373E-01   6.5947E+01  0.000E+00  0.000E+00  0.000E+00  1.09465E+03  1.601E+00  1.902E+01  8.558E-02  1.534E+00
   1    2    2     1     2    6.5947E+01  6.0983E-01   6.5338E+01  0.000E+00  0.000E+00  0.000E+00  1.08965E+03  1.595E+00  1.896E+01  1.327E-01  1.532E+00
   1    3    3     1     3    6.5338E+01  5.2015E-01   6.4817E+01  0.000E+00  0.000E+00  0.000E+00  1.08401E+03  1.588E+00  1.889E+01  1.134E-01  1.529E+00
   1    3    4     1     4    6.4817E+01  4.7905E-01   6.4338E+01  0.000E+00  0.000E+00  0.000E+00  1.07899E+03  1.582E+00  1.884E+01  1.045E-01  1.527E+00
   1    4    5     2     1    6.2338E+01  3.9665E-01   6.1942E+01  0.000E+00  0.000E+00  0.000E+00  1.07402E+03  2.085E+00  1.200E+01  7.800E-02  1.695E+00
   1    5    6     2     2    6.1942E+01  3.0469E-01   6.1637E+01  0.000E+00  0.000E+00  0.000E+00  1.06859E+03  2.078E+00  1.200E+01  6.000E-02  1.693E+00
   1    6    6     2     3    6.1637E+01  3.0432E-01   6.1333E+01  0.000E+00  0.000E+00  0.000E+00  1.06386E+03  2.072E+00  1.200E+01  6.000E-02  1.691E+00
   1    7    6     2     4    6.1333E+01  3.0396E-01   6.1029E+01  0.000E+00  0.000E+00  0.000E+00  1.05914E+03  2.066E+00  1.200E+01  6.000E-02  1.689E+00
   1    8    6     2     5    6.1029E+01  3.0359E-01   6.0725E+01  0.000E+00  0.000E+00  0.000E+00  1.05442E+03  2.060E+00  1.200E+01  6.000E-02  1.687E+00
   1    3    5     3     1    2.0000E+00  2.8252E-01   1.7175E+00  0.000E+00  0.000E+00  0.000E+00  1.07555E+03  1.909E+00  9.636E+00  7.227E-02  1.955E+00
   1    3    6     3     2    1.7175E+00  2.4905E-01   1.4684E+00  0.000E+00  0.000E+00  0.000E+00  1.07264E+03  1.727E+00  8.909E+00  6.682E-02  1.864E+00
   1    3    7     3     3    1.4684E+00  1.9718E-01   1.2712E+00  0.000E+00  0.000E+00  0.000E+00  1.06987E+03  1.555E+00  8.218E+00  5.547E-02  1.777E+00
   1    4    8     3     4    1.2712E+00  2.2567E-01   1.0456E+00  0.000E+00  0.000E+00  0.000E+00  1.06682E+03  1.364E+00  7.455E+00  6.709E-02  1.682E+00
   1    5    8     3     5    1.0456E+00  1.5790E-01   8.8768E-01  0.000E+00  0.000E+00  0.000E+00  1.06362E+03  1.164E+00  6.655E+00  4.991E-02  1.582E+00
   1    6    8     3     6    8.8768E-01  5.5980E-02   8.3170E-01  0.000E+00  0.000E+00  0.000E+00  1.06158E+03  1.036E+00  6.145E+00  1.844E-02  1.518E+00
   1    5   10     4     1    1.0000E+01  9.0919E-02   9.9091E+00  0.000E+00  0.000E+00  0.000E+00  1.07836E+03  6.368E-01  1.000E+01  2.500E-02  1.212E+00
   1    5    9     4     2    9.9091E+00  1.8158E-01   9.7275E+00  0.000E+00  0.000E+00  0.000E+00  1.07154E+03  6.315E-01  1.000E+01  5.000E-02  1.211E+00
   1    6    8     4     3    9.7275E+00  1.2689E-01   9.6006E+00  0.000E+00  0.000E+00  0.000E+00  1.06381E+03  6.256E-01  1.000E+01  3.500E-02  1.209E+00
   1    6    8     5     1    1.0432E+01  2.2686E-01   1.0205E+01  0.000E+00  0.000E+00  0.000E+00  1.05868E+03  6.790E-01  1.542E+01  6.166E-02  1.226E+00
   1    7    7     5     2    1.0205E+01  2.7894E-01   9.9265E+00  0.000E+00  0.000E+00  0.000E+00  1.05417E+03  6.732E-01  1.519E+01  7.594E-02  1.224E+00
   1    8    7     5     3    9.9265E+00  1.9221E-01   9.7343E+00  0.000E+00  0.000E+00  0.000E+00  1.04992E+03  6.676E-01  1.497E+01  5.241E-02  1.223E+00
   1    8    6     5     4    9.7343E+00  1.3577E-01   9.5985E+00  0.000E+00  0.000E+00  0.000E+00  1.04691E+03  6.637E-01  1.482E+01  3.706E-02  1.221E+00
   1    9    6     6     1    7.0324E+01  3.1608E-01   7.0008E+01  0.000E+00  0.000E+00  0.000E+00  1.04500E+03  2.268E+00  1.200E+01  6.000E-02  1.756E+00
   1   10    7     6     2    7.0008E+01  3.1571E-01   6.9692E+01  0.000E+00  0.000E+00  0.000E+00  1.04044E+03  2.262E+00  1.200E+01  6.000E-02  1.754E+00
   1   11    7     6     3    6.9692E+01  3.1534E-01   6.9377E+01  0.000E+00  0.000E+00  0.000E+00  1.03589E+03  2.256E+00  1.200E+01  6.000E-02  1.752E+00
   1   12    7     6     4    6.9377E+01  3.1498E-01   6.9062E+01  0.000E+00  0.000E+00  0.000E+00  1.03134E+03  2.250E+00  1.200E+01  6.000E-02  1.750E+00
   1   13    7     6     5    6.9062E+01  2.6272E-02   6.9035E+01  0.000E+00  0.000E+00  0.000E+00  1.02816E+03  2.246E+00  1.200E+01  2.400E-02  3.649E-01
   1   14    9     7     1    1.5000E+02  1.3350E+00   1.4866E+02  0.000E+00  0.000E+00  0.000E+00  1.03987E+03  2.288E+00  5.529E+01  5.593E-01  7.956E-01
   1   13    8     7     2    1.4866E+02  1.8343E+00   1.4683E+02  0.000E+00  0.000E+00  0.000E+00  1.03478E+03  2.279E+00  5.526E+01  6.148E-01  9.946E-01
   1   13    7     7     3    1.4683E+02  1.4682E+00   1.4536E+02  0.000E+00  0.000E+00  0.000E+00  1.02969E+03  2.270E+00  5.522E+01  5.585E-01  8.764E-01
   1   13    6     8     1    2.1440E+02  1.1089E+00   2.1329E+02  0.000E+00  0.000E+00  0.000E+00  1.02509E+03  3.217E+00  4.665E+01  4.754E-01  7.775E-01
   1   13    5     8     2    2.1329E+02  2.9667E-01   2.1299E+02  0.000E+00  0.000E+00  0.000E+00  1.01884E+03  3.213E+00  4.660E+01  4.748E-01  2.083E-01
   1   13    4     8     3    2.1299E+02 -2.2187E+00   2.1521E+02  0.000E+00  0.000E+00  0.000E+00  1.01259E+03  3.219E+00  4.667E+01  4.756E+00 -1.555E-01
   1   13    3     8     4    2.1521E+02 -3.5720E+00   2.1878E+02  0.000E+00  0.000E+00  0.000E+00  1.00636E+03  3.235E+00  4.691E+01  4.780E+00 -2.491E-01
   1   13    2     8     5    2.1878E+02 -2.5518E+00   2.2133E+02  0.000E+00  0.000E+00  0.000E+00  1.00013E+03  3.252E+00  4.716E+01  4.805E+00 -1.770E-01
   1   13    1     8     6    2.2133E+02 -1.9025E+00   2.2324E+02  0.000E+00  0.000E+00  0.000E+00  9.95140E+02  3.265E+00  4.734E+01  2.894E+00 -2.191E-01
   1    8    6     9     1    0.0000E+00  0.0000E+00   0.0000E+00  0.000E+00  0.000E+00  0.000E+00  1.07875E+03  0.000E+00  4.000E+00  0.000E+00  1.000E+00
   1    8    5     9     2    0.0000E+00  0.0000E+00   0.0000E+00  0.000E+00  0.000E+00  0.000E+00  1.07825E+03  0.000E+00  4.000E+00  0.000E+00  1.000E+00





UNSATURATED ZONE PACKAGE VOLUMETRIC BUDGET FOR  TIME STEP    30 STRESS PERIOD   16
  ------------------------------------------------------------------------------



     CUMULATIVE VOLUMES      L**3       RATES FOR THIS TIME STEP      L**3/T
     ------------------                 ------------------------

           IN:                                      IN:
           ---                                      ---
        INFILTRATION =   437396730.4803          INFILTRATION =           0.8475

          OUT:                                     OUT:
          ----                                     ----
              UZF ET =   435957022.6945                UZF ET =           0.7500
        UZF RECHARGE =       73224.0000          UZF RECHARGE =       0.0000E+00

            IN - OUT =     1366483.7858              IN - OUT =       9.7500E-02

          STORAGE:                                 STORAGE:
          --------                                 --------
      STORAGE CHANGE =     1366483.7199        STORAGE CHANGE =       9.7500E-02

 PERCENT DISCREPANCY IS DIFFERENCE BETWEEN IN-OUT MINUS CHANGE IN STORAGE
 DIVIDED BY THE AVERAGE OF IN AND OUT TIMES 100

 PERCENT DISCREPANCY =           0.00     PERCENT DISCREPANCY =           0.00






1
  VOLUMETRIC BUDGET FOR AGRICULTURAL FIELDS AT  END OF TIME STEP   30, STRESS PERIOD  16
  ------------------------------------------------------------------------------

     CUMULATIVE VOLUMES      L**3       RATES FOR THIS TIME STEP      L**3/T
     ------------------                 ------------------------

           IN:                                      IN:
           ---                                      ---
               AG WELLS  =   403889344.0000                 AG WELLS  =           0.0000
      DIVERSION SEGMENTS =           0.0000        DIVERSION SEGMENTS =           0.0000
       IRRIGATION PONDS  =           0.0000         IRRIGATION PONDS  =           0.0000
           GW IRRIGATION =           0.0000             GW IRRIGATION =           0.0000
           SW IRRIGATION =           0.0000             SW IRRIGATION =           0.0000
        SYSTEM LOSSES GW =           0.0000          SYSTEM LOSSES GW =           0.0000
        SYSTEM LOSSES SW =           0.0000          SYSTEM LOSSES SW =           0.0000

                TOTAL IN =   403889344.0000                  TOTAL IN =           0.0000

          OUT:                                     OUT:
          ----                                     ----
               AG WELLS  =           0.0000                 AG WELLS  =           0.0000
      DIVERSION SEGMENTS =           0.0000        DIVERSION SEGMENTS =           0.0000
       IRRIGATION PONDS  =           0.0000         IRRIGATION PONDS  =           0.0000
           GW IRRIGATION =   403889344.0000             GW IRRIGATION =           0.0000
           SW IRRIGATION =           0.0000             SW IRRIGATION =           0.0000
        SYSTEM LOSSES GW =           0.0000          SYSTEM LOSSES GW =           0.0000
        SYSTEM LOSSES SW =           0.0000          SYSTEM LOSSES SW =           0.0000

               TOTAL OUT =   403889344.0000                 TOTAL OUT =           0.0000

                IN - OUT =           0.0000                  IN - OUT =           0.0000

     PERCENT DISCREPANCY =           0.00         PERCENT DISCREPANCY =           0.00



1
  VOLUMETRIC BUDGET FOR ENTIRE MODEL AT END OF TIME STEP   30, STRESS PERIOD  16
  ------------------------------------------------------------------------------

     CUMULATIVE VOLUMES      L**3       RATES FOR THIS TIME STEP      L**3/T
     ------------------                 ------------------------

           IN:                                      IN:
           ---                                      ---
             STORAGE     =   576551232.0000               STORAGE     =           3.0451
       CONSTANT HEAD     =           0.0000         CONSTANT HEAD     =           0.0000
     HEAD DEP BOUNDS     =    11295839.0000       HEAD DEP BOUNDS     =           0.2857
      STREAM LEAKAGE     =   477322368.0000        STREAM LEAKAGE     =          13.3490
        UZF RECHARGE     =       73223.9531          UZF RECHARGE     =           0.0000
               GW ET     =           0.0000                 GW ET     =           0.0000
     SURFACE LEAKAGE     =           0.0000       SURFACE LEAKAGE     =           0.0000
           AG WELLS      =           0.0000             AG WELLS      =           0.0000

                TOTAL IN =  1065242624.0000                  TOTAL IN =          16.6798

          OUT:                                     OUT:
          ----                                     ----
             STORAGE     =   228592608.0000               STORAGE     =           6.1369
       CONSTANT HEAD     =           0.0000         CONSTANT HEAD     =           0.0000
     HEAD DEP BOUNDS     =    11553764.0000       HEAD DEP BOUNDS     =           0.2963
      STREAM LEAKAGE     =   414543008.0000        STREAM LEAKAGE     =          10.2450
        UZF RECHARGE     =           0.0000          UZF RECHARGE     =           0.0000
               GW ET     =     6669689.0000                 GW ET     =       2.5171E-03
     SURFACE LEAKAGE     =           0.0000       SURFACE LEAKAGE     =           0.0000
           AG WELLS      =   403889344.0000             AG WELLS      =           0.0000

               TOTAL OUT =  1065248448.0000                 TOTAL OUT =          16.6807

                IN - OUT =       -5824.0000                  IN - OUT =      -8.8310E-04

     PERCENT DISCREPANCY =          -0.00         PERCENT DISCREPANCY =          -0.01






         TIME SUMMARY AT END OF TIME STEP   30 IN STRESS PERIOD   16
                    SECONDS     MINUTES      HOURS       DAYS        YEARS
                    -----------------------------------------------------------
   TIME STEP LENGTH  87667.      1461.1      24.352      1.0147     2.77799E-03
 STRESS PERIOD TIME 2.63000E+06  43833.      730.56      30.440     8.33397E-02
         TOTAL TIME 3.95364E+07 6.58940E+05  10982.      457.60      1.2528    
1
1
                            STRESS PERIOD NO.   17, LENGTH =   2630000.    
                            -----------------------------------------------

                              NUMBER OF TIME STEPS =    30

                               MULTIPLIER FOR DELT =     1.000

                            INITIAL TIME STEP SIZE =   87666.66    

 REUSING NON-PARAMETER GHB CELLS FROM LAST STRESS PERIOD

      2 GHB CELLS

 REUSING STREAM SEGMENT DATA FROM LAST STRESS PERIOD



            AREAL INFILTRATION RATE
 READING ON UNIT   19 WITH FORMAT: (FREE)              

            1           2           3           4           5           6           7           8           9          10
 ........................................................................................................................
   1   1.0000E-10  2.0000E-10   0.000       0.000       0.000       0.000       0.000       0.000       0.000       0.000    
   2   2.0000E-10  1.0000E-10  2.0000E-10   0.000       0.000      8.0000E-10  8.0000E-10  5.0000E-10   0.000       0.000    
   3    0.000      5.0000E-10  1.0000E-10  1.0000E-10  8.0000E-10  8.0000E-10  5.0000E-10  5.0000E-10   0.000       0.000    
   4   8.0000E-10  5.0000E-10  1.0000E-10  1.0000E-10  1.0000E-10  1.0000E-10  1.0000E-10  1.0000E-10  2.0000E-10   0.000    
   5   8.0000E-10  5.0000E-10  1.0000E-10  1.0000E-10  1.0000E-10  1.0000E-10  1.0000E-10  1.0000E-10  1.0000E-10  1.0000E-10
   6   8.0000E-10  5.0000E-10  5.0000E-10  2.0000E-10  2.0000E-10  1.0000E-10  1.0000E-10  1.0000E-10  1.0000E-10  5.0000E-10
   7   8.0000E-10  5.0000E-10  5.0000E-10  2.0000E-10  2.0000E-10  1.0000E-10  1.0000E-10  2.0000E-10  2.0000E-10   0.000    
   8    0.000      5.0000E-10  5.0000E-10  2.0000E-10  2.0000E-10  1.0000E-10  1.0000E-10  2.0000E-10  5.0000E-10   0.000    
   9    0.000      5.0000E-10  5.0000E-10  2.0000E-10  2.0000E-10  1.0000E-10  1.0000E-10  2.0000E-10  5.0000E-10   0.000    
  10    0.000      5.0000E-10  5.0000E-10  2.0000E-10  2.0000E-10  1.0000E-10  1.0000E-10  2.0000E-10  5.0000E-10  8.0000E-10
  11    0.000      1.0000E-10  1.0000E-10  1.0000E-10  1.0000E-10  1.0000E-10  1.0000E-10  2.0000E-10  5.0000E-10   0.000    
  12   1.0000E-10  1.0000E-10  1.0000E-10  1.0000E-10  1.0000E-10  1.0000E-10  1.0000E-10  1.0000E-10  2.0000E-10   0.000    
  13   1.0000E-10  1.0000E-10  2.0000E-10  2.0000E-10  2.0000E-10  2.0000E-10  2.0000E-10  1.0000E-10  1.0000E-10   0.000    
  14    0.000      2.0000E-10  5.0000E-10  5.0000E-10  5.0000E-10  5.0000E-10  5.0000E-10  2.0000E-10  1.0000E-10   0.000    
  15    0.000       0.000      8.0000E-10  8.0000E-10  8.0000E-10  8.0000E-10   0.000       0.000       0.000       0.000    

                  ET RATE =  2.500000E-08

 USING ET EXTINCTION DEPTH FROM PREVIOUS STRESS PERIOD. CURRENT PERIOD IS:      17

 USING EXTINCTION WATER CONTENT FROM PREVIOUS STRESS PERIOD. CURRENT PERIOD IS:      17

 USING AIR ENTRY PRESSURE FROM PREVIOUS STRESS PERIOD. CURRENT PERIOD IS:      17

 USING ROOT PRESSURE HEAD FROM PREVIOUS STRESS PERIOD. CURRENT PERIOD IS:      17

 USING ROOT ACTIVITY FROM PREVIOUS STRESS PERIOD. CURRENT PERIOD IS:      17

 PROCESSING AG STRESS PERIOD DATA

 READING AG STRESS PERIOD DATA

 READING IRRIGATION SEGMENT

 READING IRRIGATION WELL

 READING SUPPLEMENTAL WELL

 NO IRRPOND OR REUSING IRRPOND DATA FROM LAST STRESS PERIOD

 END PROCESSING AG STRESS PERIOD DATA OPTIONS
 
 SOLVING FOR HEAD 
                                                   Max.-Head-Change                         Max.-Flux-Residual
  Residual-Control   Outer-Iter.   Inner-Iter.     Column Row Layer    Maximum-Head-Change  Column Row Layer    Maximum-Flux-Residual          L2-NORM 
          0                 1           2             3    7     1       0.7193385075E-02       3   13    1        -0.3758531076E+00      0.1174769683E+01
          0                 2           2             3    7     1      -0.6997201235E-03       3   13    1         0.3669841869E-01      0.1167639033E+00
          0                 3           1             3    7     1       0.4764841494E-04       4   13    1        -0.2530214684E-02      0.8108566879E-02

    ------------------------------------------------
       NWT REQUIRED            3 OUTER ITERATIONS 
       AND A TOTAL OF          5 INNER ITERATIONS.
    ------------------------------------------------

 NO OUTPUT CONTROL FOR STRESS PERIOD   17   TIME STEP    1
 
 SOLVING FOR HEAD 
                                                   Max.-Head-Change                         Max.-Flux-Residual
  Residual-Control   Outer-Iter.   Inner-Iter.     Column Row Layer    Maximum-Head-Change  Column Row Layer    Maximum-Flux-Residual          L2-NORM 
          0                 1           2             3    7     1       0.7051598804E-02       3   13    1        -0.3360346490E+00      0.1118988969E+01
          0                 2           2             3    7     1      -0.6859281744E-03       3   13    1         0.3281460408E-01      0.1112906374E+00
          0                 3           1             3    7     1       0.4670922889E-04       4   13    1        -0.2233949193E-02      0.7735381138E-02

    ------------------------------------------------
       NWT REQUIRED            3 OUTER ITERATIONS 
       AND A TOTAL OF          5 INNER ITERATIONS.
    ------------------------------------------------

 NO OUTPUT CONTROL FOR STRESS PERIOD   17   TIME STEP    2
 
 SOLVING FOR HEAD 
                                                   Max.-Head-Change                         Max.-Flux-Residual
  Residual-Control   Outer-Iter.   Inner-Iter.     Column Row Layer    Maximum-Head-Change  Column Row Layer    Maximum-Flux-Residual          L2-NORM 
          0                 1           2             3    7     1       0.6912115253E-02       3   13    1        -0.3004570854E+00      0.1069141714E+01
          0                 2           2             3    7     1      -0.6723602188E-03       3   13    1         0.2934370799E-01      0.1063961660E+00
          0                 3           1             3    7     1       0.4578529632E-04       3   13    1        -0.1986206244E-02      0.7400417463E-02

    ------------------------------------------------
       NWT REQUIRED            3 OUTER ITERATIONS 
       AND A TOTAL OF          5 INNER ITERATIONS.
    ------------------------------------------------

 NO OUTPUT CONTROL FOR STRESS PERIOD   17   TIME STEP    3
 
 SOLVING FOR HEAD 
                                                   Max.-Head-Change                         Max.-Flux-Residual
  Residual-Control   Outer-Iter.   Inner-Iter.     Column Row Layer    Maximum-Head-Change  Column Row Layer    Maximum-Flux-Residual          L2-NORM 
          0                 1           2             3    7     1       0.6774947406E-02       3   13    1        -0.2686722326E+00      0.1024463497E+01
          0                 2           2             3    7     1      -0.6590175195E-03       3   13    1         0.2624177164E-01      0.1020058226E+00
          0                 3           1             3    7     1       0.4487670349E-04       3   13    1        -0.1777206306E-02      0.7100599398E-02

    ------------------------------------------------
       NWT REQUIRED            3 OUTER ITERATIONS 
       AND A TOTAL OF          5 INNER ITERATIONS.
    ------------------------------------------------

 NO OUTPUT CONTROL FOR STRESS PERIOD   17   TIME STEP    4
 
 SOLVING FOR HEAD 
                                                   Max.-Head-Change                         Max.-Flux-Residual
  Residual-Control   Outer-Iter.   Inner-Iter.     Column Row Layer    Maximum-Head-Change  Column Row Layer    Maximum-Flux-Residual          L2-NORM 
          0                 1           2             3    7     1       0.6640101705E-02       3   13    1        -0.2402780023E+00      0.9842704505E+00
          0                 2           2             3    7     1      -0.6459007034E-03       3   13    1         0.2347160881E-01      0.9805310281E-01
          0                 3           1             3    7     1       0.4398349276E-04       3   13    1        -0.1590313139E-02      0.6830034366E-02

    ------------------------------------------------
       NWT REQUIRED            3 OUTER ITERATIONS 
       AND A TOTAL OF          5 INNER ITERATIONS.
    ------------------------------------------------

 NO OUTPUT CONTROL FOR STRESS PERIOD   17   TIME STEP    5
 
 SOLVING FOR HEAD 
                                                   Max.-Head-Change                         Max.-Flux-Residual
  Residual-Control   Outer-Iter.   Inner-Iter.     Column Row Layer    Maximum-Head-Change  Column Row Layer    Maximum-Flux-Residual          L2-NORM 
          0                 1           2             3    7     1       0.6507580539E-02       3   13    1        -0.2149111352E+00      0.9479841913E+00
          0                 2           2             3    7     1      -0.6330100020E-03       3   13    1         0.2099510922E-01      0.9448131627E-01
          0                 3           1             3    7     1       0.4310568024E-04       6    7    1         0.1437185692E-02      0.6584276342E-02

    ------------------------------------------------
       NWT REQUIRED            3 OUTER ITERATIONS 
       AND A TOTAL OF          5 INNER ITERATIONS.
    ------------------------------------------------

 NO OUTPUT CONTROL FOR STRESS PERIOD   17   TIME STEP    6
 
 SOLVING FOR HEAD 
                                                   Max.-Head-Change                         Max.-Flux-Residual
  Residual-Control   Outer-Iter.   Inner-Iter.     Column Row Layer    Maximum-Head-Change  Column Row Layer    Maximum-Flux-Residual          L2-NORM 
          0                 1           2             3    7     1       0.6377384286E-02       1    1    1         0.1976752238E+00      0.9150995251E+00
          0                 2           2             3    7     1      -0.6203454521E-03       1    1    1        -0.1976755005E-01      0.9124120289E-01
          0                 3           1             3    7     1       0.4224326733E-04       1    1    1         0.1383728823E-02      0.6362514642E-02

    ------------------------------------------------
       NWT REQUIRED            3 OUTER ITERATIONS 
       AND A TOTAL OF          5 INNER ITERATIONS.
    ------------------------------------------------

 NO OUTPUT CONTROL FOR STRESS PERIOD   17   TIME STEP    7
 
 SOLVING FOR HEAD 
                                                   Max.-Head-Change                         Max.-Flux-Residual
  Residual-Control   Outer-Iter.   Inner-Iter.     Column Row Layer    Maximum-Head-Change  Column Row Layer    Maximum-Flux-Residual          L2-NORM 
          0                 1           2             3    7     1       0.6249507847E-02       1    1    1         0.1974728165E+00      0.8851874221E+00
          0                 2           2             3    7     1      -0.6079065590E-03       1    1    1        -0.1974730923E-01      0.8829122669E-01
          0                 3           1             3    7     1       0.4139622197E-04       1    1    1         0.1382311974E-02      0.6159597099E-02

    ------------------------------------------------
       NWT REQUIRED            3 OUTER ITERATIONS 
       AND A TOTAL OF          5 INNER ITERATIONS.
    ------------------------------------------------

 NO OUTPUT CONTROL FOR STRESS PERIOD   17   TIME STEP    8
 
 SOLVING FOR HEAD 
                                                   Max.-Head-Change                         Max.-Flux-Residual
  Residual-Control   Outer-Iter.   Inner-Iter.     Column Row Layer    Maximum-Head-Change  Column Row Layer    Maximum-Flux-Residual          L2-NORM 
          0                 1           2             3    7     1       0.6123939710E-02       1    1    1         0.1972698884E+00      0.8578719426E+00
          0                 2           2             3    7     1      -0.5956922011E-03       1    1    1        -0.1972701630E-01      0.8559501998E-01
          0                 3           1             3    7     1       0.4056446654E-04       1    1    1         0.1380891468E-02      0.5973960848E-02

    ------------------------------------------------
       NWT REQUIRED            3 OUTER ITERATIONS 
       AND A TOTAL OF          5 INNER ITERATIONS.
    ------------------------------------------------

 NO OUTPUT CONTROL FOR STRESS PERIOD   17   TIME STEP    9
 
 SOLVING FOR HEAD 
                                                   Max.-Head-Change                         Max.-Flux-Residual
  Residual-Control   Outer-Iter.   Inner-Iter.     Column Row Layer    Maximum-Head-Change  Column Row Layer    Maximum-Flux-Residual          L2-NORM 
          0                 1           2             3    7     1       0.6000667349E-02       1    1    1         0.1970676071E+00      0.8328338481E+00
          0                 2           2             3    7     1      -0.5837011597E-03       1    1    1        -0.1970678806E-01      0.8312072138E-01
          0                 3           1             3    7     1       0.3974791831E-04       1    1    1         0.1379475505E-02      0.5803471567E-02

    ------------------------------------------------
       NWT REQUIRED            3 OUTER ITERATIONS 
       AND A TOTAL OF          5 INNER ITERATIONS.
    ------------------------------------------------

 NO OUTPUT CONTROL FOR STRESS PERIOD   17   TIME STEP   10
 
 SOLVING FOR HEAD 
                                                   Max.-Head-Change                         Max.-Flux-Residual
  Residual-Control   Outer-Iter.   Inner-Iter.     Column Row Layer    Maximum-Head-Change  Column Row Layer    Maximum-Flux-Residual          L2-NORM 
          0                 1           2             3    7     1       0.5879918982E-02       1    1    1         0.1968671386E+00      0.8097987380E+00
          0                 2           2             3    7     1      -0.5719556357E-03       1    1    1        -0.1968674110E-01      0.8084257194E-01
          0                 3           1             3    7     1       0.3894808927E-04       1    1    1         0.1378072219E-02      0.5646512238E-02

    ------------------------------------------------
       NWT REQUIRED            3 OUTER ITERATIONS 
       AND A TOTAL OF          5 INNER ITERATIONS.
    ------------------------------------------------

 NO OUTPUT CONTROL FOR STRESS PERIOD   17   TIME STEP   11
 
 SOLVING FOR HEAD 
                                                   Max.-Head-Change                         Max.-Flux-Residual
  Residual-Control   Outer-Iter.   Inner-Iter.     Column Row Layer    Maximum-Head-Change  Column Row Layer    Maximum-Flux-Residual          L2-NORM 
          0                 1           2             3    7     1       0.5761183413E-02       1    1    1         0.1966661389E+00      0.7885326653E+00
          0                 2           2             3    7     1      -0.5604059027E-03       1    1    1        -0.1966664101E-01      0.7873703350E-01
          0                 3           1             3    7     1       0.3816159370E-04       1    1    1         0.1376665215E-02      0.5500984825E-02

    ------------------------------------------------
       NWT REQUIRED            3 OUTER ITERATIONS 
       AND A TOTAL OF          5 INNER ITERATIONS.
    ------------------------------------------------

 NO OUTPUT CONTROL FOR STRESS PERIOD   17   TIME STEP   12
 
 SOLVING FOR HEAD 
                                                   Max.-Head-Change                         Max.-Flux-Residual
  Residual-Control   Outer-Iter.   Inner-Iter.     Column Row Layer    Maximum-Head-Change  Column Row Layer    Maximum-Flux-Residual          L2-NORM 
          0                 1           2             3    7     1       0.5644932619E-02       1    1    1         0.1964657753E+00      0.7688354234E+00
          0                 2           2             3    7     1      -0.5490978709E-03       1    1    1        -0.1964660455E-01      0.7678516283E-01
          0                 3           1             3    7     1       0.3739155673E-04       1    1    1         0.1375262668E-02      0.5365629034E-02

    ------------------------------------------------
       NWT REQUIRED            3 OUTER ITERATIONS 
       AND A TOTAL OF          5 INNER ITERATIONS.
    ------------------------------------------------

 NO OUTPUT CONTROL FOR STRESS PERIOD   17   TIME STEP   13
 
 SOLVING FOR HEAD 
                                                   Max.-Head-Change                         Max.-Flux-Residual
  Residual-Control   Outer-Iter.   Inner-Iter.     Column Row Layer    Maximum-Head-Change  Column Row Layer    Maximum-Flux-Residual          L2-NORM 
          0                 1           2             3    7     1       0.5530889888E-02       1    1    1         0.1962660456E+00      0.7505293579E+00
          0                 2           2             3    7     1      -0.5337386725E-03       1    1    1        -0.1962663147E-01      0.7491859459E-01
          0                 3           1             3    7     1       0.3634563566E-04       1    1    1         0.1373864539E-02      0.5236682049E-02

    ------------------------------------------------
       NWT REQUIRED            3 OUTER ITERATIONS 
       AND A TOTAL OF          5 INNER ITERATIONS.
    ------------------------------------------------

 NO OUTPUT CONTROL FOR STRESS PERIOD   17   TIME STEP   14
 
 SOLVING FOR HEAD 
                                                   Max.-Head-Change                         Max.-Flux-Residual
  Residual-Control   Outer-Iter.   Inner-Iter.     Column Row Layer    Maximum-Head-Change  Column Row Layer    Maximum-Flux-Residual          L2-NORM 
          0                 1           2             3    7     1       0.5432352258E-02       1    1    1         0.1960669448E+00      0.7335071729E+00
          0                 2           2             3    7     1      -0.5284208069E-03       1    1    1        -0.1960672129E-01      0.7328052174E-01
          0                 3           1             3    7     1       0.3598350721E-04       1    1    1         0.1372470842E-02      0.5123401953E-02

    ------------------------------------------------
       NWT REQUIRED            3 OUTER ITERATIONS 
       AND A TOTAL OF          5 INNER ITERATIONS.
    ------------------------------------------------

 NO OUTPUT CONTROL FOR STRESS PERIOD   17   TIME STEP   15
 
 SOLVING FOR HEAD 
                                                   Max.-Head-Change                         Max.-Flux-Residual
  Residual-Control   Outer-Iter.   Inner-Iter.     Column Row Layer    Maximum-Head-Change  Column Row Layer    Maximum-Flux-Residual          L2-NORM 
          0                 1           2             3    7     1       0.5331147639E-02       1    1    1         0.1958696407E+00      0.7176475679E+00
          0                 2           2             3    7     1      -0.5185763160E-03       1    1    1        -0.1958699078E-01      0.7170536290E-01
          0                 3           1             3    7     1       0.3531313312E-04       1    1    1         0.1371089691E-02      0.5013904323E-02

    ------------------------------------------------
       NWT REQUIRED            3 OUTER ITERATIONS 
       AND A TOTAL OF          5 INNER ITERATIONS.
    ------------------------------------------------

 NO OUTPUT CONTROL FOR STRESS PERIOD   17   TIME STEP   16
 
 SOLVING FOR HEAD 
                                                   Max.-Head-Change                         Max.-Flux-Residual
  Residual-Control   Outer-Iter.   Inner-Iter.     Column Row Layer    Maximum-Head-Change  Column Row Layer    Maximum-Flux-Residual          L2-NORM 
          0                 1           2             3    7     1       0.5231652511E-02       1    1    1         0.1956717865E+00      0.7027836192E+00
          0                 2           2             3    7     1      -0.5088981138E-03       1    1    1        -0.1956720525E-01      0.7022790307E-01
          0                 3           1             3    7     1       0.3465408232E-04       1    1    1         0.1369704700E-02      0.4911413222E-02

    ------------------------------------------------
       NWT REQUIRED            3 OUTER ITERATIONS 
       AND A TOTAL OF          5 INNER ITERATIONS.
    ------------------------------------------------

 NO OUTPUT CONTROL FOR STRESS PERIOD   17   TIME STEP   17
 
 SOLVING FOR HEAD 
                                                   Max.-Head-Change                         Max.-Flux-Residual
  Residual-Control   Outer-Iter.   Inner-Iter.     Column Row Layer    Maximum-Head-Change  Column Row Layer    Maximum-Flux-Residual          L2-NORM 
          0                 1           2             3    7     1       0.5134095199E-02       1    1    1         0.1954745523E+00      0.6888295357E+00
          0                 2           2             3    7     1      -0.4994084097E-03       1    1    1        -0.1954748172E-01      0.6883917723E-01
          0                 3           1             3    7     1       0.3400786855E-04       1    1    1         0.1368324049E-02      0.4813868536E-02

    ------------------------------------------------
       NWT REQUIRED            3 OUTER ITERATIONS 
       AND A TOTAL OF          5 INNER ITERATIONS.
    ------------------------------------------------

 NO OUTPUT CONTROL FOR STRESS PERIOD   17   TIME STEP   18
 
 SOLVING FOR HEAD 
                                                   Max.-Head-Change                         Max.-Flux-Residual
  Residual-Control   Outer-Iter.   Inner-Iter.     Column Row Layer    Maximum-Head-Change  Column Row Layer    Maximum-Flux-Residual          L2-NORM 
          0                 1           2             3    7     1       0.5038451226E-02       1    1    1         0.1952779343E+00      0.6756876142E+00
          0                 2           2             3    7     1      -0.4901048220E-03       1    1    1        -0.1952781981E-01      0.6753263552E-01
          0                 3           1             3    7     1       0.3337432781E-04       1    1    1         0.1366947732E-02      0.4724000243E-02

    ------------------------------------------------
       NWT REQUIRED            3 OUTER ITERATIONS 
       AND A TOTAL OF          5 INNER ITERATIONS.
    ------------------------------------------------

 NO OUTPUT CONTROL FOR STRESS PERIOD   17   TIME STEP   19
 
 SOLVING FOR HEAD 
                                                   Max.-Head-Change                         Max.-Flux-Residual
  Residual-Control   Outer-Iter.   Inner-Iter.     Column Row Layer    Maximum-Head-Change  Column Row Layer    Maximum-Flux-Residual          L2-NORM 
          0                 1           2             3    7     1       0.4944449863E-02       1    1    1         0.1950819282E+00      0.6632941879E+00
          0                 2           2             3    7     1      -0.4809610168E-03       1    1    1        -0.1950821911E-01      0.6629866260E-01
          0                 3           1             3    7     1       0.3275166812E-04       1    1    1         0.1365575677E-02      0.4638140743E-02

    ------------------------------------------------
       NWT REQUIRED            3 OUTER ITERATIONS 
       AND A TOTAL OF          5 INNER ITERATIONS.
    ------------------------------------------------

 NO OUTPUT CONTROL FOR STRESS PERIOD   17   TIME STEP   20
 
 SOLVING FOR HEAD 
                                                   Max.-Head-Change                         Max.-Flux-Residual
  Residual-Control   Outer-Iter.   Inner-Iter.     Column Row Layer    Maximum-Head-Change  Column Row Layer    Maximum-Flux-Residual          L2-NORM 
          0                 1           2             3    7     1       0.4852073836E-02       1    1    1         0.1948865321E+00      0.6515811337E+00
          0                 2           2             3    7     1      -0.4719753138E-03       1    1    1        -0.1948867939E-01      0.6513197238E-01
          0                 3           1             3    7     1       0.3213977459E-04       1    1    1         0.1364207910E-02      0.4556876786E-02

    ------------------------------------------------
       NWT REQUIRED            3 OUTER ITERATIONS 
       AND A TOTAL OF          5 INNER ITERATIONS.
    ------------------------------------------------

 NO OUTPUT CONTROL FOR STRESS PERIOD   17   TIME STEP   21
 
 SOLVING FOR HEAD 
                                                   Max.-Head-Change                         Max.-Flux-Residual
  Residual-Control   Outer-Iter.   Inner-Iter.     Column Row Layer    Maximum-Head-Change  Column Row Layer    Maximum-Flux-Residual          L2-NORM 
          0                 1           2             3    7     1       0.4761791013E-02       1    1    1         0.1946917421E+00      0.6404970801E+00
          0                 2           2             3    7     1      -0.4631932233E-03       1    1    1        -0.1946920028E-01      0.6402712333E-01
          0                 3           1             3    7     1       0.3154174631E-04       1    1    1         0.1362844358E-02      0.4479668834E-02

    ------------------------------------------------
       NWT REQUIRED            3 OUTER ITERATIONS 
       AND A TOTAL OF          5 INNER ITERATIONS.
    ------------------------------------------------

 NO OUTPUT CONTROL FOR STRESS PERIOD   17   TIME STEP   22
 
 SOLVING FOR HEAD 
                                                   Max.-Head-Change                         Max.-Flux-Residual
  Residual-Control   Outer-Iter.   Inner-Iter.     Column Row Layer    Maximum-Head-Change  Column Row Layer    Maximum-Flux-Residual          L2-NORM 
          0                 1           2             3    7     1       0.4673077396E-02       1    1    1         0.1944975555E+00      0.6299845560E+00
          0                 2           2             3    7     1      -0.4545637756E-03       1    1    1        -0.1944978153E-01      0.6297928872E-01
          0                 3           1             3    7     1       0.3095411321E-04       1    1    1         0.1361485058E-02      0.4406849611E-02

    ------------------------------------------------
       NWT REQUIRED            3 OUTER ITERATIONS 
       AND A TOTAL OF          5 INNER ITERATIONS.
    ------------------------------------------------

 NO OUTPUT CONTROL FOR STRESS PERIOD   17   TIME STEP   23
 
 SOLVING FOR HEAD 
                                                   Max.-Head-Change                         Max.-Flux-Residual
  Residual-Control   Outer-Iter.   Inner-Iter.     Column Row Layer    Maximum-Head-Change  Column Row Layer    Maximum-Flux-Residual          L2-NORM 
          0                 1           2             3    7     1       0.4585909124E-02       1    1    1         0.1943039686E+00      0.6199969528E+00
          0                 2           2             3    7     1      -0.4460846477E-03       1    1    1        -0.1943042274E-01      0.6198327262E-01
          0                 3           1             3    7     1       0.3037671539E-04       1    1    1         0.1360129916E-02      0.4337267716E-02

    ------------------------------------------------
       NWT REQUIRED            3 OUTER ITERATIONS 
       AND A TOTAL OF          5 INNER ITERATIONS.
    ------------------------------------------------

 NO OUTPUT CONTROL FOR STRESS PERIOD   17   TIME STEP   24
 
 SOLVING FOR HEAD 
                                                   Max.-Head-Change                         Max.-Flux-Residual
  Residual-Control   Outer-Iter.   Inner-Iter.     Column Row Layer    Maximum-Head-Change  Column Row Layer    Maximum-Flux-Residual          L2-NORM 
          0                 1           2             3    7     1       0.4500751535E-02       1    1    1         0.1941109772E+00      0.6105060294E+00
          0                 2           2             3    7     1      -0.4378011069E-03       1    1    1        -0.1941112349E-01      0.6103643227E-01
          0                 3           1             3    7     1       0.2981263672E-04       1    1    1         0.1358778974E-02      0.4271293263E-02

    ------------------------------------------------
       NWT REQUIRED            3 OUTER ITERATIONS 
       AND A TOTAL OF          5 INNER ITERATIONS.
    ------------------------------------------------

 NO OUTPUT CONTROL FOR STRESS PERIOD   17   TIME STEP   25
 
 SOLVING FOR HEAD 
                                                   Max.-Head-Change                         Max.-Flux-Residual
  Residual-Control   Outer-Iter.   Inner-Iter.     Column Row Layer    Maximum-Head-Change  Column Row Layer    Maximum-Flux-Residual          L2-NORM 
          0                 1           2             3    7     1       0.4417081932E-02       1    1    1         0.1939174089E+00      0.6014668325E+00
          0                 2           2             3    7     1      -0.4296623067E-03       1    1    1        -0.1939176657E-01      0.6013456336E-01
          0                 3           1             3    7     1       0.2925841454E-04       1    1    1         0.1357424005E-02      0.4208256100E-02

    ------------------------------------------------
       NWT REQUIRED            3 OUTER ITERATIONS 
       AND A TOTAL OF          5 INNER ITERATIONS.
    ------------------------------------------------

 NO OUTPUT CONTROL FOR STRESS PERIOD   17   TIME STEP   26
 
 SOLVING FOR HEAD 
                                                   Max.-Head-Change                         Max.-Flux-Residual
  Residual-Control   Outer-Iter.   Inner-Iter.     Column Row Layer    Maximum-Head-Change  Column Row Layer    Maximum-Flux-Residual          L2-NORM 
          0                 1           2             3    7     1       0.4334873543E-02       1    1    1         0.1937256045E+00      0.5928459099E+00
          0                 2           2             3    7     1      -0.4216656440E-03       1    1    1        -0.1937258604E-01      0.5927408260E-01
          0                 3           1             3    7     1       0.2871387123E-04       1    1    1         0.1356081357E-02      0.4148240310E-02

    ------------------------------------------------
       NWT REQUIRED            3 OUTER ITERATIONS 
       AND A TOTAL OF          5 INNER ITERATIONS.
    ------------------------------------------------

 NO OUTPUT CONTROL FOR STRESS PERIOD   17   TIME STEP   27
 
 SOLVING FOR HEAD 
                                                   Max.-Head-Change                         Max.-Flux-Residual
  Residual-Control   Outer-Iter.   Inner-Iter.     Column Row Layer    Maximum-Head-Change  Column Row Layer    Maximum-Flux-Residual          L2-NORM 
          0                 1           2             3    7     1       0.4254588458E-02       1    1    1         0.1935343871E+00      0.5846261641E+00
          0                 2           2             3    7     1      -0.4138560674E-03       1    1    1        -0.1935346419E-01      0.5845371915E-01
          0                 3           1             3    7     1       0.2818206781E-04       1    1    1         0.1354742837E-02      0.4090967765E-02

    ------------------------------------------------
       NWT REQUIRED            3 OUTER ITERATIONS 
       AND A TOTAL OF          5 INNER ITERATIONS.
    ------------------------------------------------

 NO OUTPUT CONTROL FOR STRESS PERIOD   17   TIME STEP   28
 
 SOLVING FOR HEAD 
                                                   Max.-Head-Change                         Max.-Flux-Residual
  Residual-Control   Outer-Iter.   Inner-Iter.     Column Row Layer    Maximum-Head-Change  Column Row Layer    Maximum-Flux-Residual          L2-NORM 
          0                 1           2             3    7     1       0.4175702898E-02       1    1    1         0.1933437538E+00      0.5767699545E+00
          0                 2           2             3    7     1      -0.4061826278E-03       1    1    1        -0.1933440077E-01      0.5766918353E-01
          0                 3           1             3    7     1       0.2765953535E-04       1    1    1         0.1353408381E-02      0.4036144862E-02

    ------------------------------------------------
       NWT REQUIRED            3 OUTER ITERATIONS 
       AND A TOTAL OF          5 INNER ITERATIONS.
    ------------------------------------------------

 NO OUTPUT CONTROL FOR STRESS PERIOD   17   TIME STEP   29
 
 SOLVING FOR HEAD 
                                                   Max.-Head-Change                         Max.-Flux-Residual
  Residual-Control   Outer-Iter.   Inner-Iter.     Column Row Layer    Maximum-Head-Change  Column Row Layer    Maximum-Flux-Residual          L2-NORM 
          0                 1           2             3    7     1       0.4098678781E-02       1    1    1         0.1687639104E+00      0.6230686971E+00
          0                 2           2             3    7     1      -0.3986902562E-03       1    1    1        -0.1687640864E-01      0.6192018584E-01
          0                 3           1             3    7     1       0.2714933440E-04       1    1    1         0.1181348947E-02      0.4299660705E-02

    ------------------------------------------------
       NWT REQUIRED            3 OUTER ITERATIONS 
       AND A TOTAL OF          5 INNER ITERATIONS.
    ------------------------------------------------

 NO OUTPUT CONTROL FOR STRESS PERIOD   17   TIME STEP   30



 STREAM LISTING     PERIOD     17   STEP       30

 LAYER ROW COL. STREAM  RCH.  FLOW INTO     FLOW TO   FLOW OUT OF   OVRLND.     DIRECT     STREAM       STREAM     STREAM     STREAM   STREAMBED  STREAMBED
                SEG.NO.  NO.  STRM. RCH.    AQUIFER    STRM. RCH.    RUNOFF     PRECIP       ET          HEAD       DEPTH      WIDTH   CONDCTNC.   GRADIENT

   1    1    1     1     1    4.9431E+01  3.3436E-01   4.9097E+01  0.000E+00  0.000E+00  0.000E+00  1.09444E+03  1.395E+00  1.690E+01  7.607E-02  1.465E+00
   1    2    2     1     2    4.9097E+01  5.1808E-01   4.8579E+01  0.000E+00  0.000E+00  0.000E+00  1.08945E+03  1.393E+00  1.685E+01  1.179E-01  1.464E+00
   1    3    3     1     3    4.8579E+01  4.4210E-01   4.8137E+01  0.000E+00  0.000E+00  0.000E+00  1.08381E+03  1.390E+00  1.679E+01  1.007E-01  1.463E+00
   1    3    4     1     4    4.8137E+01  4.0732E-01   4.7729E+01  0.000E+00  0.000E+00  0.000E+00  1.07879E+03  1.387E+00  1.673E+01  9.285E-02  1.462E+00
   1    4    5     2     1    4.5729E+01  3.6899E-01   4.5360E+01  0.000E+00  0.000E+00  0.000E+00  1.07366E+03  1.731E+00  1.200E+01  7.800E-02  1.577E+00
   1    5    6     2     2    4.5360E+01  2.8339E-01   4.5077E+01  0.000E+00  0.000E+00  0.000E+00  1.06823E+03  1.723E+00  1.200E+01  6.000E-02  1.574E+00
   1    6    6     2     3    4.5077E+01  2.8300E-01   4.4794E+01  0.000E+00  0.000E+00  0.000E+00  1.06351E+03  1.717E+00  1.200E+01  6.000E-02  1.572E+00
   1    7    6     2     4    4.4794E+01  2.8261E-01   4.4511E+01  0.000E+00  0.000E+00  0.000E+00  1.05879E+03  1.710E+00  1.200E+01  6.000E-02  1.570E+00
   1    8    6     2     5    4.4511E+01  2.8222E-01   4.4229E+01  0.000E+00  0.000E+00  0.000E+00  1.05406E+03  1.704E+00  1.200E+01  6.000E-02  1.568E+00
   1    3    5     3     1    2.0000E+00  2.8252E-01   1.7175E+00  0.000E+00  0.000E+00  0.000E+00  1.07555E+03  1.909E+00  9.636E+00  7.227E-02  1.955E+00
   1    3    6     3     2    1.7175E+00  2.4905E-01   1.4684E+00  0.000E+00  0.000E+00  0.000E+00  1.07264E+03  1.727E+00  8.909E+00  6.682E-02  1.864E+00
   1    3    7     3     3    1.4684E+00  1.9718E-01   1.2712E+00  0.000E+00  0.000E+00  0.000E+00  1.06987E+03  1.555E+00  8.218E+00  5.547E-02  1.777E+00
   1    4    8     3     4    1.2712E+00  2.2567E-01   1.0456E+00  0.000E+00  0.000E+00  0.000E+00  1.06682E+03  1.364E+00  7.455E+00  6.709E-02  1.682E+00
   1    5    8     3     5    1.0456E+00  1.5790E-01   8.8768E-01  0.000E+00  0.000E+00  0.000E+00  1.06362E+03  1.164E+00  6.655E+00  4.991E-02  1.582E+00
   1    6    8     3     6    8.8768E-01  5.5980E-02   8.3170E-01  0.000E+00  0.000E+00  0.000E+00  1.06158E+03  1.036E+00  6.145E+00  1.844E-02  1.518E+00
   1    5   10     4     1    1.0000E+01  9.0919E-02   9.9091E+00  0.000E+00  0.000E+00  0.000E+00  1.07836E+03  6.368E-01  1.000E+01  2.500E-02  1.212E+00
   1    5    9     4     2    9.9091E+00  1.8158E-01   9.7275E+00  0.000E+00  0.000E+00  0.000E+00  1.07154E+03  6.315E-01  1.000E+01  5.000E-02  1.211E+00
   1    6    8     4     3    9.7275E+00  1.2689E-01   9.6006E+00  0.000E+00  0.000E+00  0.000E+00  1.06381E+03  6.256E-01  1.000E+01  3.500E-02  1.209E+00
   1    6    8     5     1    1.0432E+01  2.2686E-01   1.0205E+01  0.000E+00  0.000E+00  0.000E+00  1.05868E+03  6.790E-01  1.542E+01  6.166E-02  1.226E+00
   1    7    7     5     2    1.0205E+01  2.7894E-01   9.9265E+00  0.000E+00  0.000E+00  0.000E+00  1.05417E+03  6.732E-01  1.519E+01  7.594E-02  1.224E+00
   1    8    7     5     3    9.9265E+00  1.9221E-01   9.7343E+00  0.000E+00  0.000E+00  0.000E+00  1.04992E+03  6.676E-01  1.497E+01  5.241E-02  1.223E+00
   1    8    6     5     4    9.7343E+00  1.3577E-01   9.5985E+00  0.000E+00  0.000E+00  0.000E+00  1.04691E+03  6.637E-01  1.482E+01  3.706E-02  1.221E+00
   1    9    6     6     1    5.3828E+01  2.9588E-01   5.3532E+01  0.000E+00  0.000E+00  0.000E+00  1.04466E+03  1.931E+00  1.200E+01  6.000E-02  1.644E+00
   1   10    7     6     2    5.3532E+01  2.9550E-01   5.3236E+01  0.000E+00  0.000E+00  0.000E+00  1.04011E+03  1.925E+00  1.200E+01  6.000E-02  1.642E+00
   1   11    7     6     3    5.3236E+01  2.9511E-01   5.2941E+01  0.000E+00  0.000E+00  0.000E+00  1.03555E+03  1.919E+00  1.200E+01  6.000E-02  1.640E+00
   1   12    7     6     4    5.2941E+01  2.9473E-01   5.2646E+01  0.000E+00  0.000E+00  0.000E+00  1.03100E+03  1.912E+00  1.200E+01  6.000E-02  1.637E+00
   1   13    7     6     5    5.2646E+01  1.8273E-02   5.2628E+01  0.000E+00  0.000E+00  0.000E+00  1.02782E+03  1.909E+00  1.200E+01  2.400E-02  2.538E-01
   1   14    9     7     1    1.5000E+02  1.3356E+00   1.4866E+02  0.000E+00  0.000E+00  0.000E+00  1.03987E+03  2.288E+00  5.529E+01  5.593E-01  7.960E-01
   1   13    8     7     2    1.4866E+02  1.8374E+00   1.4683E+02  0.000E+00  0.000E+00  0.000E+00  1.03478E+03  2.279E+00  5.526E+01  6.148E-01  9.963E-01
   1   13    7     7     3    1.4683E+02  1.4706E+00   1.4536E+02  0.000E+00  0.000E+00  0.000E+00  1.02969E+03  2.270E+00  5.522E+01  5.585E-01  8.778E-01
   1   13    6     8     1    1.9798E+02  1.0355E+00   1.9695E+02  0.000E+00  0.000E+00  0.000E+00  1.02500E+03  3.123E+00  4.528E+01  4.614E-01  7.480E-01
   1   13    5     8     2    1.9695E+02  2.4432E-01   1.9670E+02  0.000E+00  0.000E+00  0.000E+00  1.01874E+03  3.119E+00  4.522E+01  4.609E-01  1.767E-01
   1   13    4     8     3    1.9670E+02 -2.3520E+00   1.9906E+02  0.000E+00  0.000E+00  0.000E+00  1.01250E+03  3.125E+00  4.532E+01  4.618E+00 -1.698E-01
   1   13    3     8     4    1.9906E+02 -3.6379E+00   2.0269E+02  0.000E+00  0.000E+00  0.000E+00  1.00627E+03  3.143E+00  4.557E+01  4.644E+00 -2.611E-01
   1   13    2     8     5    2.0269E+02 -2.6786E+00   2.0537E+02  0.000E+00  0.000E+00  0.000E+00  1.00004E+03  3.161E+00  4.584E+01  4.671E+00 -1.911E-01
   1   13    1     8     6    2.0537E+02 -2.0558E+00   2.0743E+02  0.000E+00  0.000E+00  0.000E+00  9.95050E+02  3.175E+00  4.604E+01  2.815E+00 -2.434E-01
   1    8    6     9     1    0.0000E+00  0.0000E+00   0.0000E+00  0.000E+00  0.000E+00  0.000E+00  1.07875E+03  0.000E+00  4.000E+00  0.000E+00  1.000E+00
   1    8    5     9     2    0.0000E+00  0.0000E+00   0.0000E+00  0.000E+00  0.000E+00  0.000E+00  1.07825E+03  0.000E+00  4.000E+00  0.000E+00  1.000E+00





UNSATURATED ZONE PACKAGE VOLUMETRIC BUDGET FOR  TIME STEP    30 STRESS PERIOD   17
  ------------------------------------------------------------------------------



     CUMULATIVE VOLUMES      L**3       RATES FOR THIS TIME STEP      L**3/T
     ------------------                 ------------------------

           IN:                                      IN:
           ---                                      ---
        INFILTRATION =   449409254.8879          INFILTRATION =           4.5675

          OUT:                                     OUT:
          ----                                     ----
              UZF ET =   448663787.3438                UZF ET =           4.5675
        UZF RECHARGE =       73224.0000          UZF RECHARGE =       0.0000E+00

            IN - OUT =      672243.5441              IN - OUT =       0.0000E+00

          STORAGE:                                 STORAGE:
          --------                                 --------
      STORAGE CHANGE =      672243.4909        STORAGE CHANGE =      -3.3198E-16

 PERCENT DISCREPANCY IS DIFFERENCE BETWEEN IN-OUT MINUS CHANGE IN STORAGE
 DIVIDED BY THE AVERAGE OF IN AND OUT TIMES 100

 PERCENT DISCREPANCY =           0.00     PERCENT DISCREPANCY =           0.00






1
  VOLUMETRIC BUDGET FOR AGRICULTURAL FIELDS AT  END OF TIME STEP   30, STRESS PERIOD  17
  ------------------------------------------------------------------------------

     CUMULATIVE VOLUMES      L**3       RATES FOR THIS TIME STEP      L**3/T
     ------------------                 ------------------------

           IN:                                      IN:
           ---                                      ---
               AG WELLS  =   413672704.0000                 AG WELLS  =           3.7200
      DIVERSION SEGMENTS =           0.0000        DIVERSION SEGMENTS =           0.0000
       IRRIGATION PONDS  =           0.0000         IRRIGATION PONDS  =           0.0000
           GW IRRIGATION =           0.0000             GW IRRIGATION =           0.0000
           SW IRRIGATION =           0.0000             SW IRRIGATION =           0.0000
        SYSTEM LOSSES GW =           0.0000          SYSTEM LOSSES GW =           0.0000
        SYSTEM LOSSES SW =           0.0000          SYSTEM LOSSES SW =           0.0000

                TOTAL IN =   413672704.0000                  TOTAL IN =           3.7200

          OUT:                                     OUT:
          ----                                     ----
               AG WELLS  =           0.0000                 AG WELLS  =           0.0000
      DIVERSION SEGMENTS =           0.0000        DIVERSION SEGMENTS =           0.0000
       IRRIGATION PONDS  =           0.0000         IRRIGATION PONDS  =           0.0000
           GW IRRIGATION =   413672704.0000             GW IRRIGATION =           3.7200
           SW IRRIGATION =           0.0000             SW IRRIGATION =           0.0000
        SYSTEM LOSSES GW =           0.0000          SYSTEM LOSSES GW =           0.0000
        SYSTEM LOSSES SW =           0.0000          SYSTEM LOSSES SW =           0.0000

               TOTAL OUT =   413672704.0000                 TOTAL OUT =           3.7200

                IN - OUT =           0.0000                  IN - OUT =           0.0000

     PERCENT DISCREPANCY =           0.00         PERCENT DISCREPANCY =           0.00



1
  VOLUMETRIC BUDGET FOR ENTIRE MODEL AT END OF TIME STEP   30, STRESS PERIOD  17
  ------------------------------------------------------------------------------

     CUMULATIVE VOLUMES      L**3       RATES FOR THIS TIME STEP      L**3/T
     ------------------                 ------------------------

           IN:                                      IN:
           ---                                      ---
             STORAGE     =   586363200.0000               STORAGE     =           3.4937
       CONSTANT HEAD     =           0.0000         CONSTANT HEAD     =           0.0000
     HEAD DEP BOUNDS     =    12047294.0000       HEAD DEP BOUNDS     =           0.2857
      STREAM LEAKAGE     =   511435712.0000        STREAM LEAKAGE     =          12.7265
        UZF RECHARGE     =       73223.9531          UZF RECHARGE     =           0.0000
               GW ET     =           0.0000                 GW ET     =           0.0000
     SURFACE LEAKAGE     =           0.0000       SURFACE LEAKAGE     =           0.0000
           AG WELLS      =           0.0000             AG WELLS      =           0.0000

                TOTAL IN =  1109919488.0000                  TOTAL IN =          16.5059

          OUT:                                     OUT:
          ----                                     ----
             STORAGE     =   234880000.0000               STORAGE     =           1.6901
       CONSTANT HEAD     =           0.0000         CONSTANT HEAD     =           0.0000
     HEAD DEP BOUNDS     =    12332073.0000       HEAD DEP BOUNDS     =           0.2957
      STREAM LEAKAGE     =   442076192.0000        STREAM LEAKAGE     =          10.7243
        UZF RECHARGE     =           0.0000          UZF RECHARGE     =           0.0000
               GW ET     =     6962703.0000                 GW ET     =       7.5380E-02
     SURFACE LEAKAGE     =           0.0000       SURFACE LEAKAGE     =           0.0000
           AG WELLS      =   413672704.0000             AG WELLS      =           3.7200

               TOTAL OUT =  1109923584.0000                 TOTAL OUT =          16.5054

                IN - OUT =       -4096.0000                  IN - OUT =       5.2261E-04

     PERCENT DISCREPANCY =          -0.00         PERCENT DISCREPANCY =           0.00






         TIME SUMMARY AT END OF TIME STEP   30 IN STRESS PERIOD   17
                    SECONDS     MINUTES      HOURS       DAYS        YEARS
                    -----------------------------------------------------------
   TIME STEP LENGTH  87667.      1461.1      24.352      1.0147     2.77799E-03
 STRESS PERIOD TIME 2.63000E+06  43833.      730.56      30.440     8.33397E-02
         TOTAL TIME 4.21664E+07 7.02774E+05  11713.      488.04      1.3362    
1
1
                            STRESS PERIOD NO.   18, LENGTH =   2630000.    
                            -----------------------------------------------

                              NUMBER OF TIME STEPS =    30

                               MULTIPLIER FOR DELT =     1.000

                            INITIAL TIME STEP SIZE =   87666.66    

 REUSING NON-PARAMETER GHB CELLS FROM LAST STRESS PERIOD

      2 GHB CELLS

 REUSING STREAM SEGMENT DATA FROM LAST STRESS PERIOD



            AREAL INFILTRATION RATE
 READING ON UNIT   19 WITH FORMAT: (FREE)              

            1           2           3           4           5           6           7           8           9          10
 ........................................................................................................................
   1   1.0000E-10  2.0000E-10   0.000       0.000       0.000       0.000       0.000       0.000       0.000       0.000    
   2   2.0000E-10  1.0000E-10  2.0000E-10   0.000       0.000      8.0000E-10  8.0000E-10  5.0000E-10   0.000       0.000    
   3    0.000      5.0000E-10  1.0000E-10  1.0000E-10  8.0000E-10  8.0000E-10  5.0000E-10  5.0000E-10   0.000       0.000    
   4   8.0000E-10  5.0000E-10  1.0000E-10  1.0000E-10  1.0000E-10  1.0000E-10  1.0000E-10  1.0000E-10  2.0000E-10   0.000    
   5   8.0000E-10  5.0000E-10  1.0000E-10  1.0000E-10  1.0000E-10  1.0000E-10  1.0000E-10  1.0000E-10  1.0000E-10  1.0000E-10
   6   8.0000E-10  5.0000E-10  5.0000E-10  2.0000E-10  2.0000E-10  1.0000E-10  1.0000E-10  1.0000E-10  1.0000E-10  5.0000E-10
   7   8.0000E-10  5.0000E-10  5.0000E-10  2.0000E-10  2.0000E-10  1.0000E-10  1.0000E-10  2.0000E-10  2.0000E-10   0.000    
   8    0.000      5.0000E-10  5.0000E-10  2.0000E-10  2.0000E-10  1.0000E-10  1.0000E-10  2.0000E-10  5.0000E-10   0.000    
   9    0.000      5.0000E-10  5.0000E-10  2.0000E-10  2.0000E-10  1.0000E-10  1.0000E-10  2.0000E-10  5.0000E-10   0.000    
  10    0.000      5.0000E-10  5.0000E-10  2.0000E-10  2.0000E-10  1.0000E-10  1.0000E-10  2.0000E-10  5.0000E-10  8.0000E-10
  11    0.000      1.0000E-10  1.0000E-10  1.0000E-10  1.0000E-10  1.0000E-10  1.0000E-10  2.0000E-10  5.0000E-10   0.000    
  12   1.0000E-10  1.0000E-10  1.0000E-10  1.0000E-10  1.0000E-10  1.0000E-10  1.0000E-10  1.0000E-10  2.0000E-10   0.000    
  13   1.0000E-10  1.0000E-10  2.0000E-10  2.0000E-10  2.0000E-10  2.0000E-10  2.0000E-10  1.0000E-10  1.0000E-10   0.000    
  14    0.000      2.0000E-10  5.0000E-10  5.0000E-10  5.0000E-10  5.0000E-10  5.0000E-10  2.0000E-10  1.0000E-10   0.000    
  15    0.000       0.000      8.0000E-10  8.0000E-10  8.0000E-10  8.0000E-10   0.000       0.000       0.000       0.000    

                  ET RATE =  5.000000E-08

 USING ET EXTINCTION DEPTH FROM PREVIOUS STRESS PERIOD. CURRENT PERIOD IS:      18

 USING EXTINCTION WATER CONTENT FROM PREVIOUS STRESS PERIOD. CURRENT PERIOD IS:      18

 USING AIR ENTRY PRESSURE FROM PREVIOUS STRESS PERIOD. CURRENT PERIOD IS:      18

 USING ROOT PRESSURE HEAD FROM PREVIOUS STRESS PERIOD. CURRENT PERIOD IS:      18

 USING ROOT ACTIVITY FROM PREVIOUS STRESS PERIOD. CURRENT PERIOD IS:      18

 PROCESSING AG STRESS PERIOD DATA

 READING AG STRESS PERIOD DATA

 READING IRRIGATION SEGMENT

 READING IRRIGATION WELL

 READING SUPPLEMENTAL WELL

 NO IRRPOND OR REUSING IRRPOND DATA FROM LAST STRESS PERIOD

 END PROCESSING AG STRESS PERIOD DATA OPTIONS
 
 SOLVING FOR HEAD 
                                                   Max.-Head-Change                         Max.-Flux-Residual
  Residual-Control   Outer-Iter.   Inner-Iter.     Column Row Layer    Maximum-Head-Change  Column Row Layer    Maximum-Flux-Residual          L2-NORM 
          0                 1           2             4    7     1      -0.1361716115E-01       4    7    1        -0.7129138145E+00      0.1805484365E+01
          0                 2           2             4    7     1       0.1324577533E-02       4    7    1         0.7129132764E-01      0.1803197638E+00
          0                 3           1             4    7     1      -0.9019882797E-04       4    7    1        -0.4990395598E-02      0.1260149327E-01

    ------------------------------------------------
       NWT REQUIRED            3 OUTER ITERATIONS 
       AND A TOTAL OF          5 INNER ITERATIONS.
    ------------------------------------------------

 NO OUTPUT CONTROL FOR STRESS PERIOD   18   TIME STEP    1
 
 SOLVING FOR HEAD 
                                                   Max.-Head-Change                         Max.-Flux-Residual
  Residual-Control   Outer-Iter.   Inner-Iter.     Column Row Layer    Maximum-Head-Change  Column Row Layer    Maximum-Flux-Residual          L2-NORM 
          0                 1           2             4    7     1      -0.1350856842E-01       4    7    1        -0.7075335902E+00      0.1761048130E+01
          0                 2           2             4    7     1       0.1314014251E-02       4    7    1         0.7075329330E-01      0.1759144966E+00
          0                 3           1             4    7     1      -0.8947950914E-04       4    7    1        -0.4952733283E-02      0.1229674688E-01

    ------------------------------------------------
       NWT REQUIRED            3 OUTER ITERATIONS 
       AND A TOTAL OF          5 INNER ITERATIONS.
    ------------------------------------------------

 NO OUTPUT CONTROL FOR STRESS PERIOD   18   TIME STEP    2
 
 SOLVING FOR HEAD 
                                                   Max.-Head-Change                         Max.-Flux-Residual
  Residual-Control   Outer-Iter.   Inner-Iter.     Column Row Layer    Maximum-Head-Change  Column Row Layer    Maximum-Flux-Residual          L2-NORM 
          0                 1           2             4    7     1      -0.1339539822E-01       4    7    1        -0.7018882963E+00      0.1719787422E+01
          0                 2           2             4    7     1       0.1302986794E-02       4    7    1         0.7018875331E-01      0.1717671306E+00
          0                 3           1             4    7     1      -0.8872858165E-04       4    7    1        -0.4913215571E-02      0.1200900517E-01

    ------------------------------------------------
       NWT REQUIRED            3 OUTER ITERATIONS 
       AND A TOTAL OF          5 INNER ITERATIONS.
    ------------------------------------------------

 NO OUTPUT CONTROL FOR STRESS PERIOD   18   TIME STEP    3
 
 SOLVING FOR HEAD 
                                                   Max.-Head-Change                         Max.-Flux-Residual
  Residual-Control   Outer-Iter.   Inner-Iter.     Column Row Layer    Maximum-Head-Change  Column Row Layer    Maximum-Flux-Residual          L2-NORM 
          0                 1           2             4    7     1      -0.1327843309E-01       4    7    1        -0.6960140438E+00      0.1681311287E+01
          0                 2           2             4    7     1       0.1291628107E-02       4    7    1         0.6960131891E-01      0.1678342307E+00
          0                 3           1             4    7     1      -0.8795509861E-04       4    7    1        -0.4872095228E-02      0.1180546951E-01

    ------------------------------------------------
       NWT REQUIRED            3 OUTER ITERATIONS 
       AND A TOTAL OF          5 INNER ITERATIONS.
    ------------------------------------------------

 NO OUTPUT CONTROL FOR STRESS PERIOD   18   TIME STEP    4
 
 SOLVING FOR HEAD 
                                                   Max.-Head-Change                         Max.-Flux-Residual
  Residual-Control   Outer-Iter.   Inner-Iter.     Column Row Layer    Maximum-Head-Change  Column Row Layer    Maximum-Flux-Residual          L2-NORM 
          0                 1           2             4    7     1      -0.1315793052E-01       4    7    1        -0.6899336562E+00      0.1645538963E+01
          0                 2           2             4    7     1       0.1279906377E-02       4    7    1         0.6899327205E-01      0.1644414664E+00
          0                 3           1             4    7     1      -0.8715689339E-04       4    7    1        -0.4829532008E-02      0.1150183312E-01

    ------------------------------------------------
       NWT REQUIRED            3 OUTER ITERATIONS 
       AND A TOTAL OF          5 INNER ITERATIONS.
    ------------------------------------------------

 NO OUTPUT CONTROL FOR STRESS PERIOD   18   TIME STEP    5
 
 SOLVING FOR HEAD 
                                                   Max.-Head-Change                         Max.-Flux-Residual
  Residual-Control   Outer-Iter.   Inner-Iter.     Column Row Layer    Maximum-Head-Change  Column Row Layer    Maximum-Flux-Residual          L2-NORM 
          0                 1           2             4    7     1      -0.1303433051E-01       4    7    1        -0.6836708695E+00      0.1612055605E+01
          0                 2           2             4    7     1       0.1267883364E-02       4    7    1         0.6836698626E-01      0.1611082433E+00
          0                 3           1             4    7     1      -0.8633817226E-04       4    7    1        -0.4785692075E-02      0.1126881229E-01

    ------------------------------------------------
       NWT REQUIRED            3 OUTER ITERATIONS 
       AND A TOTAL OF          5 INNER ITERATIONS.
    ------------------------------------------------

 NO OUTPUT CONTROL FOR STRESS PERIOD   18   TIME STEP    6
 
 SOLVING FOR HEAD 
                                                   Max.-Head-Change                         Max.-Flux-Residual
  Residual-Control   Outer-Iter.   Inner-Iter.     Column Row Layer    Maximum-Head-Change  Column Row Layer    Maximum-Flux-Residual          L2-NORM 
          0                 1           2             4    7     1      -0.1290803452E-01       4    7    1        -0.6772474894E+00      0.1580391276E+01
          0                 2           2             4    7     1       0.1255598120E-02       4    7    1         0.6772464210E-01      0.1579558160E+00
          0                 3           1             4    7     1      -0.8550159366E-04       4    7    1        -0.4740728014E-02      0.1104932053E-01

    ------------------------------------------------
       NWT REQUIRED            3 OUTER ITERATIONS 
       AND A TOTAL OF          5 INNER ITERATIONS.
    ------------------------------------------------

 NO OUTPUT CONTROL FOR STRESS PERIOD   18   TIME STEP    7
 
 SOLVING FOR HEAD 
                                                   Max.-Head-Change                         Max.-Flux-Residual
  Residual-Control   Outer-Iter.   Inner-Iter.     Column Row Layer    Maximum-Head-Change  Column Row Layer    Maximum-Flux-Residual          L2-NORM 
          0                 1           2             4    7     1      -0.1277941991E-01       4    7    1        -0.6706843315E+00      0.1550376394E+01
          0                 2           2             4    7     1       0.1243087351E-02       4    7    1         0.6706832097E-01      0.1549664215E+00
          0                 3           1             4    7     1      -0.8464965757E-04       4    7    1        -0.4694785565E-02      0.1084131704E-01

    ------------------------------------------------
       NWT REQUIRED            3 OUTER ITERATIONS 
       AND A TOTAL OF          5 INNER ITERATIONS.
    ------------------------------------------------

 NO OUTPUT CONTROL FOR STRESS PERIOD   18   TIME STEP    8
 
 SOLVING FOR HEAD 
                                                   Max.-Head-Change                         Max.-Flux-Residual
  Residual-Control   Outer-Iter.   Inner-Iter.     Column Row Layer    Maximum-Head-Change  Column Row Layer    Maximum-Flux-Residual          L2-NORM 
          0                 1           2             4    7     1      -0.1264896023E-01       4    7    1        -0.6640083251E+00      0.1521862101E+01
          0                 2           2             4    7     1       0.1230397117E-02       4    7    1         0.6640071577E-01      0.1521248533E+00
          0                 3           1             4    7     1      -0.8378550026E-04       4    7    1        -0.4648053237E-02      0.1064303500E-01

    ------------------------------------------------
       NWT REQUIRED            3 OUTER ITERATIONS 
       AND A TOTAL OF          5 INNER ITERATIONS.
    ------------------------------------------------

 NO OUTPUT CONTROL FOR STRESS PERIOD   18   TIME STEP    9
 
 SOLVING FOR HEAD 
                                                   Max.-Head-Change                         Max.-Flux-Residual
  Residual-Control   Outer-Iter.   Inner-Iter.     Column Row Layer    Maximum-Head-Change  Column Row Layer    Maximum-Flux-Residual          L2-NORM 
          0                 1           2             4    7     1      -0.1251670941E-01       4    7    1        -0.6572219298E+00      0.1494730180E+01
          0                 2           2             4    7     1       0.1217532663E-02       4    7    1         0.6572207239E-01      0.1494205351E+00
          0                 3           1             4    7     1      -0.8290947888E-04       4    7    1        -0.4600548195E-02      0.1045473136E-01

    ------------------------------------------------
       NWT REQUIRED            3 OUTER ITERATIONS 
       AND A TOTAL OF          5 INNER ITERATIONS.
    ------------------------------------------------

 NO OUTPUT CONTROL FOR STRESS PERIOD   18   TIME STEP   10
 
 SOLVING FOR HEAD 
                                                   Max.-Head-Change                         Max.-Flux-Residual
  Residual-Control   Outer-Iter.   Inner-Iter.     Column Row Layer    Maximum-Head-Change  Column Row Layer    Maximum-Flux-Residual          L2-NORM 
          0                 1           2             4    7     1      -0.1238324146E-01       4    7    1        -0.6503573990E+00      0.1468855170E+01
          0                 2           2             4    7     1       0.1204549827E-02       4    7    1         0.6503561609E-01      0.1468400520E+00
          0                 3           1             4    7     1      -0.8202539641E-04       4    7    1        -0.4552496263E-02      0.1027477096E-01

    ------------------------------------------------
       NWT REQUIRED            3 OUTER ITERATIONS 
       AND A TOTAL OF          5 INNER ITERATIONS.
    ------------------------------------------------

 NO OUTPUT CONTROL FOR STRESS PERIOD   18   TIME STEP   11
 
 SOLVING FOR HEAD 
                                                   Max.-Head-Change                         Max.-Flux-Residual
  Residual-Control   Outer-Iter.   Inner-Iter.     Column Row Layer    Maximum-Head-Change  Column Row Layer    Maximum-Flux-Residual          L2-NORM 
          0                 1           2             4    7     1      -0.1224856399E-01       4    7    1        -0.6434150380E+00      0.1444158029E+01
          0                 2           2             4    7     1       0.1191449345E-02       4    7    1         0.6434137739E-01      0.1443767559E+00
          0                 3           1             4    7     1      -0.8113330278E-04       4    7    1        -0.4503899561E-02      0.1010298338E-01

    ------------------------------------------------
       NWT REQUIRED            3 OUTER ITERATIONS 
       AND A TOTAL OF          5 INNER ITERATIONS.
    ------------------------------------------------

 NO OUTPUT CONTROL FOR STRESS PERIOD   18   TIME STEP   12
 
 SOLVING FOR HEAD 
                                                   Max.-Head-Change                         Max.-Flux-Residual
  Residual-Control   Outer-Iter.   Inner-Iter.     Column Row Layer    Maximum-Head-Change  Column Row Layer    Maximum-Flux-Residual          L2-NORM 
          0                 1           2             4    7     1      -0.1211320824E-01       4    7    1        -0.6364246967E+00      0.1420525827E+01
          0                 2           2             4    7     1       0.1178282893E-02       4    7    1         0.6364234119E-01      0.1420185330E+00
          0                 3           1             4    7     1      -0.8023671650E-04       4    7    1        -0.4454967020E-02      0.9938244900E-02

    ------------------------------------------------
       NWT REQUIRED            3 OUTER ITERATIONS 
       AND A TOTAL OF          5 INNER ITERATIONS.
    ------------------------------------------------

 NO OUTPUT CONTROL FOR STRESS PERIOD   18   TIME STEP   13
 
 SOLVING FOR HEAD 
                                                   Max.-Head-Change                         Max.-Flux-Residual
  Residual-Control   Outer-Iter.   Inner-Iter.     Column Row Layer    Maximum-Head-Change  Column Row Layer    Maximum-Flux-Residual          L2-NORM 
          0                 1           2             4    7     1      -0.1197714263E-01       4    7    1        -0.6293844642E+00      0.1397919141E+01
          0                 2           2             4    7     1       0.1165047398E-02       4    7    1         0.6293831631E-01      0.1397623571E+00
          0                 3           1             4    7     1      -0.7933542835E-04       4    7    1        -0.4405685272E-02      0.9780672022E-02

    ------------------------------------------------
       NWT REQUIRED            3 OUTER ITERATIONS 
       AND A TOTAL OF          5 INNER ITERATIONS.
    ------------------------------------------------

 NO OUTPUT CONTROL FOR STRESS PERIOD   18   TIME STEP   14
 
 SOLVING FOR HEAD 
                                                   Max.-Head-Change                         Max.-Flux-Residual
  Residual-Control   Outer-Iter.   Inner-Iter.     Column Row Layer    Maximum-Head-Change  Column Row Layer    Maximum-Flux-Residual          L2-NORM 
          0                 1           2             4    7     1      -0.1184086245E-01       4    7    1        -0.6223221578E+00      0.1376230970E+01
          0                 2           2             4    7     1       0.1151791038E-02       4    7    1         0.6223208453E-01      0.1375974311E+00
          0                 3           1             4    7     1      -0.7843271981E-04       4    7    1        -0.4356249047E-02      0.9629535062E-02

    ------------------------------------------------
       NWT REQUIRED            3 OUTER ITERATIONS 
       AND A TOTAL OF          5 INNER ITERATIONS.
    ------------------------------------------------

 NO OUTPUT CONTROL FOR STRESS PERIOD   18   TIME STEP   15
 
 SOLVING FOR HEAD 
                                                   Max.-Head-Change                         Max.-Flux-Residual
  Residual-Control   Outer-Iter.   Inner-Iter.     Column Row Layer    Maximum-Head-Change  Column Row Layer    Maximum-Flux-Residual          L2-NORM 
          0                 1           2             4    7     1      -0.1170429750E-01       4    7    1        -0.6152340029E+00      0.1355421484E+01
          0                 2           2             4    7     1       0.1138506983E-02       4    7    1         0.6152326828E-01      0.1355197831E+00
          0                 3           1             4    7     1      -0.7752812498E-04       4    7    1        -0.4306631877E-02      0.9484326919E-02

    ------------------------------------------------
       NWT REQUIRED            3 OUTER ITERATIONS 
       AND A TOTAL OF          5 INNER ITERATIONS.
    ------------------------------------------------

 NO OUTPUT CONTROL FOR STRESS PERIOD   18   TIME STEP   16
 
 SOLVING FOR HEAD 
                                                   Max.-Head-Change                         Max.-Flux-Residual
  Residual-Control   Outer-Iter.   Inner-Iter.     Column Row Layer    Maximum-Head-Change  Column Row Layer    Maximum-Flux-Residual          L2-NORM 
          0                 1           2             4    7     1      -0.1156777575E-01       4    7    1        -0.6081384506E+00      0.1335433735E+01
          0                 2           2             4    7     1       0.1125227135E-02       4    7    1         0.6081371266E-01      0.1335237806E+00
          0                 3           1             4    7     1      -0.7662381688E-04       4    7    1        -0.4256962972E-02      0.9344948186E-02

    ------------------------------------------------
       NWT REQUIRED            3 OUTER ITERATIONS 
       AND A TOTAL OF          5 INNER ITERATIONS.
    ------------------------------------------------

 NO OUTPUT CONTROL FOR STRESS PERIOD   18   TIME STEP   17
 
 SOLVING FOR HEAD 
                                                   Max.-Head-Change                         Max.-Flux-Residual
  Residual-Control   Outer-Iter.   Inner-Iter.     Column Row Layer    Maximum-Head-Change  Column Row Layer    Maximum-Flux-Residual          L2-NORM 
          0                 1           2             4    7     1      -0.1143160973E-01       4    7    1        -0.6010525042E+00      0.1316222334E+01
          0                 2           2             4    7     1       0.1111981896E-02       4    7    1         0.6010511793E-01      0.1316051526E+00
          0                 3           1             4    7     1      -0.7572186510E-04       4    7    1        -0.4207361328E-02      0.9210813112E-02

    ------------------------------------------------
       NWT REQUIRED            3 OUTER ITERATIONS 
       AND A TOTAL OF          5 INNER ITERATIONS.
    ------------------------------------------------

 NO OUTPUT CONTROL FOR STRESS PERIOD   18   TIME STEP   18
 
 SOLVING FOR HEAD 
                                                   Max.-Head-Change                         Max.-Flux-Residual
  Residual-Control   Outer-Iter.   Inner-Iter.     Column Row Layer    Maximum-Head-Change  Column Row Layer    Maximum-Flux-Residual          L2-NORM 
          0                 1           2             4    7     1      -0.1129568066E-01       4    7    1        -0.5939702805E+00      0.1297730033E+01
          0                 2           2             4    7     1       0.1098759708E-02       4    7    1         0.5939689577E-01      0.1297579352E+00
          0                 3           1             4    7     1      -0.7482148306E-04       4    7    1        -0.4157785747E-02      0.9081618953E-02

    ------------------------------------------------
       NWT REQUIRED            3 OUTER ITERATIONS 
       AND A TOTAL OF          5 INNER ITERATIONS.
    ------------------------------------------------

 NO OUTPUT CONTROL FOR STRESS PERIOD   18   TIME STEP   19
 
 SOLVING FOR HEAD 
                                                   Max.-Head-Change                         Max.-Flux-Residual
  Residual-Control   Outer-Iter.   Inner-Iter.     Column Row Layer    Maximum-Head-Change  Column Row Layer    Maximum-Flux-Residual          L2-NORM 
          0                 1           2             4    7     1      -0.1116027364E-01       4    7    1        -0.5869077081E+00      0.1279918234E+01
          0                 2           2             4    7     1       0.1085588307E-02       4    7    1         0.5869063903E-01      0.1279786783E+00
          0                 3           1             4    7     1      -0.7392455952E-04       4    7    1        -0.4108347758E-02      0.8957360337E-02

    ------------------------------------------------
       NWT REQUIRED            3 OUTER ITERATIONS 
       AND A TOTAL OF          5 INNER ITERATIONS.
    ------------------------------------------------

 NO OUTPUT CONTROL FOR STRESS PERIOD   18   TIME STEP   20
 
 SOLVING FOR HEAD 
                                                   Max.-Head-Change                         Max.-Flux-Residual
  Residual-Control   Outer-Iter.   Inner-Iter.     Column Row Layer    Maximum-Head-Change  Column Row Layer    Maximum-Flux-Residual          L2-NORM 
          0                 1           2             4    7     1      -0.1102565817E-01       4    7    1        -0.5798795691E+00      0.1262762052E+01
          0                 2           2             4    7     1       0.1072493904E-02       4    7    1         0.5798782581E-01      0.1262645659E+00
          0                 3           1             4    7     1      -0.7303287924E-04       4    7    1        -0.4059150805E-02      0.8837464744E-02

    ------------------------------------------------
       NWT REQUIRED            3 OUTER ITERATIONS 
       AND A TOTAL OF          5 INNER ITERATIONS.
    ------------------------------------------------

 NO OUTPUT CONTROL FOR STRESS PERIOD   18   TIME STEP   21
 
 SOLVING FOR HEAD 
                                                   Max.-Head-Change                         Max.-Flux-Residual
  Residual-Control   Outer-Iter.   Inner-Iter.     Column Row Layer    Maximum-Head-Change  Column Row Layer    Maximum-Flux-Residual          L2-NORM 
          0                 1           2             4    7     1      -0.1089167888E-01       4    7    1        -0.5728777496E+00      0.1246217991E+01
          0                 2           2             4    7     1       0.1059461388E-02       4    7    1         0.5728764479E-01      0.1246114934E+00
          0                 3           1             4    7     1      -0.7214541293E-04       4    7    1        -0.4010138095E-02      0.8721861218E-02

    ------------------------------------------------
       NWT REQUIRED            3 OUTER ITERATIONS 
       AND A TOTAL OF          5 INNER ITERATIONS.
    ------------------------------------------------

 NO OUTPUT CONTROL FOR STRESS PERIOD   18   TIME STEP   22
 
 SOLVING FOR HEAD 
                                                   Max.-Head-Change                         Max.-Flux-Residual
  Residual-Control   Outer-Iter.   Inner-Iter.     Column Row Layer    Maximum-Head-Change  Column Row Layer    Maximum-Flux-Residual          L2-NORM 
          0                 1           2             4    7     1      -0.1075858931E-01       4    7    1        -0.5659162807E+00      0.1230246892E+01
          0                 2           2             4    7     1       0.1046515420E-02       4    7    1         0.5659149899E-01      0.1230156058E+00
          0                 3           1             4    7     1      -0.7126384049E-04       4    7    1        -0.3961407864E-02      0.8610272949E-02

    ------------------------------------------------
       NWT REQUIRED            3 OUTER ITERATIONS 
       AND A TOTAL OF          5 INNER ITERATIONS.
    ------------------------------------------------

 NO OUTPUT CONTROL FOR STRESS PERIOD   18   TIME STEP   23
 
 SOLVING FOR HEAD 
                                                   Max.-Head-Change                         Max.-Flux-Residual
  Residual-Control   Outer-Iter.   Inner-Iter.     Column Row Layer    Maximum-Head-Change  Column Row Layer    Maximum-Flux-Residual          L2-NORM 
          0                 1           2             4    7     1      -0.1062662155E-01       4    7    1        -0.5590083074E+00      0.1214837458E+01
          0                 2           2             4    7     1       0.1033678575E-02       4    7    1         0.5590070292E-01      0.1214757071E+00
          0                 3           1             4    7     1      -0.7038969877E-04       4    7    1        -0.3913052103E-02      0.8502539219E-02

    ------------------------------------------------
       NWT REQUIRED            3 OUTER ITERATIONS 
       AND A TOTAL OF          5 INNER ITERATIONS.
    ------------------------------------------------

 NO OUTPUT CONTROL FOR STRESS PERIOD   18   TIME STEP   24
 
 SOLVING FOR HEAD 
                                                   Max.-Head-Change                         Max.-Flux-Residual
  Residual-Control   Outer-Iter.   Inner-Iter.     Column Row Layer    Maximum-Head-Change  Column Row Layer    Maximum-Flux-Residual          L2-NORM 
          0                 1           2             4    7     1      -0.1049559079E-01       4    7    1        -0.5521437781E+00      0.1199948720E+01
          0                 2           2             4    7     1       0.1020932877E-02       4    7    1         0.5521425137E-01      0.1199876348E+00
          0                 3           1             4    7     1      -0.6952176369E-04       4    7    1        -0.3865000454E-02      0.8398475013E-02

    ------------------------------------------------
       NWT REQUIRED            3 OUTER ITERATIONS 
       AND A TOTAL OF          5 INNER ITERATIONS.
    ------------------------------------------------

 NO OUTPUT CONTROL FOR STRESS PERIOD   18   TIME STEP   25
 
 SOLVING FOR HEAD 
                                                   Max.-Head-Change                         Max.-Flux-Residual
  Residual-Control   Outer-Iter.   Inner-Iter.     Column Row Layer    Maximum-Head-Change  Column Row Layer    Maximum-Flux-Residual          L2-NORM 
          0                 1           2             4    7     1      -0.1036571419E-01       4    7    1        -0.5453351953E+00      0.1185554646E+01
          0                 2           2             4    7     1       0.1008299449E-02       4    7    1         0.5453339459E-01      0.1185490318E+00
          0                 3           1             4    7     1      -0.6866147433E-04       4    7    1        -0.3817340465E-02      0.8297908958E-02

    ------------------------------------------------
       NWT REQUIRED            3 OUTER ITERATIONS 
       AND A TOTAL OF          5 INNER ITERATIONS.
    ------------------------------------------------

 NO OUTPUT CONTROL FOR STRESS PERIOD   18   TIME STEP   26
 
 SOLVING FOR HEAD 
                                                   Max.-Head-Change                         Max.-Flux-Residual
  Residual-Control   Outer-Iter.   Inner-Iter.     Column Row Layer    Maximum-Head-Change  Column Row Layer    Maximum-Flux-Residual          L2-NORM 
          0                 1           2             4    7     1      -0.1023720219E-01       4    7    1        -0.5385938183E+00      0.1171645255E+01
          0                 2           2             4    7     1       0.9957987611E-03       4    7    1         0.5385925852E-01      0.1171587752E+00
          0                 3           1             4    7     1      -0.6781022317E-04       4    7    1        -0.3770150892E-02      0.8200539871E-02

    ------------------------------------------------
       NWT REQUIRED            3 OUTER ITERATIONS 
       AND A TOTAL OF          5 INNER ITERATIONS.
    ------------------------------------------------

 NO OUTPUT CONTROL FOR STRESS PERIOD   18   TIME STEP   27
 
 SOLVING FOR HEAD 
                                                   Max.-Head-Change                         Max.-Flux-Residual
  Residual-Control   Outer-Iter.   Inner-Iter.     Column Row Layer    Maximum-Head-Change  Column Row Layer    Maximum-Flux-Residual          L2-NORM 
          0                 1           2             4    7     1      -0.1010984367E-01       4    7    1        -0.5319084745E+00      0.1158186259E+01
          0                 2           2             4    7     1       0.9834102768E-03       4    7    1         0.5319072587E-01      0.1158134484E+00
          0                 3           1             4    7     1      -0.6696661313E-04       4    7    1        -0.3723353574E-02      0.8106448985E-02

    ------------------------------------------------
       NWT REQUIRED            3 OUTER ITERATIONS 
       AND A TOTAL OF          5 INNER ITERATIONS.
    ------------------------------------------------

 NO OUTPUT CONTROL FOR STRESS PERIOD   18   TIME STEP   28
 
 SOLVING FOR HEAD 
                                                   Max.-Head-Change                         Max.-Flux-Residual
  Residual-Control   Outer-Iter.   Inner-Iter.     Column Row Layer    Maximum-Head-Change  Column Row Layer    Maximum-Flux-Residual          L2-NORM 
          0                 1           2             4    7     1      -0.9983971514E-02       4    7    1        -0.5252976616E+00      0.1145164450E+01
          0                 2           2             4    7     1       0.9711663752E-03       4    7    1         0.5252964635E-01      0.1145117975E+00
          0                 3           1             4    7     1      -0.6613284869E-04       4    7    1        -0.3677077970E-02      0.8015439470E-02

    ------------------------------------------------
       NWT REQUIRED            3 OUTER ITERATIONS 
       AND A TOTAL OF          5 INNER ITERATIONS.
    ------------------------------------------------

 NO OUTPUT CONTROL FOR STRESS PERIOD   18   TIME STEP   29
 
 SOLVING FOR HEAD 
                                                   Max.-Head-Change                         Max.-Flux-Residual
  Residual-Control   Outer-Iter.   Inner-Iter.     Column Row Layer    Maximum-Head-Change  Column Row Layer    Maximum-Flux-Residual          L2-NORM 
          0                 1           2             4    7     1      -0.9859492977E-02       4    7    1        -0.5187565561E+00      0.1132557300E+01
          0                 2           2             4    7     1       0.9590580365E-03       4    7    1         0.5187553767E-01      0.1132515941E+00
          0                 3           1             4    7     1      -0.6530831558E-04       4    7    1        -0.3631290325E-02      0.7927351389E-02

    ------------------------------------------------
       NWT REQUIRED            3 OUTER ITERATIONS 
       AND A TOTAL OF          5 INNER ITERATIONS.
    ------------------------------------------------

 NO OUTPUT CONTROL FOR STRESS PERIOD   18   TIME STEP   30



 STREAM LISTING     PERIOD     18   STEP       30

 LAYER ROW COL. STREAM  RCH.  FLOW INTO     FLOW TO   FLOW OUT OF   OVRLND.     DIRECT     STREAM       STREAM     STREAM     STREAM   STREAMBED  STREAMBED
                SEG.NO.  NO.  STRM. RCH.    AQUIFER    STRM. RCH.    RUNOFF     PRECIP       ET          HEAD       DEPTH      WIDTH   CONDCTNC.   GRADIENT

   1    1    1     1     1    4.7251E+01  3.2762E-01   4.6923E+01  0.000E+00  0.000E+00  0.000E+00  1.09443E+03  1.381E+00  1.662E+01  7.477E-02  1.460E+00
   1    2    2     1     2    4.6923E+01  5.0760E-01   4.6416E+01  0.000E+00  0.000E+00  0.000E+00  1.08944E+03  1.379E+00  1.656E+01  1.159E-01  1.460E+00
   1    3    3     1     3    4.6416E+01  4.3310E-01   4.5982E+01  0.000E+00  0.000E+00  0.000E+00  1.08379E+03  1.376E+00  1.650E+01  9.898E-02  1.459E+00
   1    3    4     1     4    4.5982E+01  3.9899E-01   4.5583E+01  0.000E+00  0.000E+00  0.000E+00  1.07878E+03  1.373E+00  1.644E+01  9.124E-02  1.458E+00
   1    4    5     2     1    4.3583E+01  3.6514E-01   4.3218E+01  0.000E+00  0.000E+00  0.000E+00  1.07362E+03  1.681E+00  1.200E+01  7.800E-02  1.560E+00
   1    5    6     2     2    4.3218E+01  2.8043E-01   4.2938E+01  0.000E+00  0.000E+00  0.000E+00  1.06818E+03  1.674E+00  1.200E+01  6.000E-02  1.558E+00
   1    6    6     2     3    4.2938E+01  2.8003E-01   4.2658E+01  0.000E+00  0.000E+00  0.000E+00  1.06346E+03  1.667E+00  1.200E+01  6.000E-02  1.556E+00
   1    7    6     2     4    4.2658E+01  2.7964E-01   4.2378E+01  0.000E+00  0.000E+00  0.000E+00  1.05874E+03  1.661E+00  1.200E+01  6.000E-02  1.554E+00
   1    8    6     2     5    4.2378E+01  2.7925E-01   4.2099E+01  0.000E+00  0.000E+00  0.000E+00  1.05401E+03  1.654E+00  1.200E+01  6.000E-02  1.551E+00
   1    3    5     3     1    2.0000E+00  2.8252E-01   1.7175E+00  0.000E+00  0.000E+00  0.000E+00  1.07555E+03  1.909E+00  9.636E+00  7.227E-02  1.955E+00
   1    3    6     3     2    1.7175E+00  2.4905E-01   1.4684E+00  0.000E+00  0.000E+00  0.000E+00  1.07264E+03  1.727E+00  8.909E+00  6.682E-02  1.864E+00
   1    3    7     3     3    1.4684E+00  1.9718E-01   1.2712E+00  0.000E+00  0.000E+00  0.000E+00  1.06987E+03  1.555E+00  8.218E+00  5.547E-02  1.777E+00
   1    4    8     3     4    1.2712E+00  2.2567E-01   1.0456E+00  0.000E+00  0.000E+00  0.000E+00  1.06682E+03  1.364E+00  7.455E+00  6.709E-02  1.682E+00
   1    5    8     3     5    1.0456E+00  1.5790E-01   8.8768E-01  0.000E+00  0.000E+00  0.000E+00  1.06362E+03  1.164E+00  6.655E+00  4.991E-02  1.582E+00
   1    6    8     3     6    8.8768E-01  5.5980E-02   8.3170E-01  0.000E+00  0.000E+00  0.000E+00  1.06158E+03  1.036E+00  6.145E+00  1.844E-02  1.518E+00
   1    5   10     4     1    1.0000E+01  9.0919E-02   9.9091E+00  0.000E+00  0.000E+00  0.000E+00  1.07836E+03  6.368E-01  1.000E+01  2.500E-02  1.212E+00
   1    5    9     4     2    9.9091E+00  1.8158E-01   9.7275E+00  0.000E+00  0.000E+00  0.000E+00  1.07154E+03  6.315E-01  1.000E+01  5.000E-02  1.211E+00
   1    6    8     4     3    9.7275E+00  1.2689E-01   9.6006E+00  0.000E+00  0.000E+00  0.000E+00  1.06381E+03  6.256E-01  1.000E+01  3.500E-02  1.209E+00
   1    6    8     5     1    1.0432E+01  2.2686E-01   1.0205E+01  0.000E+00  0.000E+00  0.000E+00  1.05868E+03  6.790E-01  1.542E+01  6.166E-02  1.226E+00
   1    7    7     5     2    1.0205E+01  2.7894E-01   9.9265E+00  0.000E+00  0.000E+00  0.000E+00  1.05417E+03  6.732E-01  1.519E+01  7.594E-02  1.224E+00
   1    8    7     5     3    9.9265E+00  1.9221E-01   9.7343E+00  0.000E+00  0.000E+00  0.000E+00  1.04992E+03  6.676E-01  1.497E+01  5.241E-02  1.223E+00
   1    8    6     5     4    9.7343E+00  1.3577E-01   9.5985E+00  0.000E+00  0.000E+00  0.000E+00  1.04691E+03  6.637E-01  1.482E+01  3.706E-02  1.221E+00
   1    9    6     6     1    5.1697E+01  2.9310E-01   5.1404E+01  0.000E+00  0.000E+00  0.000E+00  1.04461E+03  1.885E+00  1.200E+01  6.000E-02  1.628E+00
   1   10    7     6     2    5.1404E+01  2.9271E-01   5.1112E+01  0.000E+00  0.000E+00  0.000E+00  1.04006E+03  1.879E+00  1.200E+01  6.000E-02  1.626E+00
   1   11    7     6     3    5.1112E+01  2.9233E-01   5.0819E+01  0.000E+00  0.000E+00  0.000E+00  1.03551E+03  1.872E+00  1.200E+01  6.000E-02  1.624E+00
   1   12    7     6     4    5.0819E+01  2.9194E-01   5.0527E+01  0.000E+00  0.000E+00  0.000E+00  1.03096E+03  1.866E+00  1.200E+01  6.000E-02  1.622E+00
   1   13    7     6     5    5.0527E+01  1.7416E-02   5.0510E+01  0.000E+00  0.000E+00  0.000E+00  1.02777E+03  1.862E+00  1.200E+01  2.400E-02  2.419E-01
   1   14    9     7     1    1.5000E+02  1.3363E+00   1.4866E+02  0.000E+00  0.000E+00  0.000E+00  1.03987E+03  2.288E+00  5.529E+01  5.593E-01  7.964E-01
   1   13    8     7     2    1.4866E+02  1.8407E+00   1.4682E+02  0.000E+00  0.000E+00  0.000E+00  1.03478E+03  2.279E+00  5.526E+01  6.148E-01  9.981E-01
   1   13    7     7     3    1.4682E+02  1.4766E+00   1.4535E+02  0.000E+00  0.000E+00  0.000E+00  1.02969E+03  2.270E+00  5.522E+01  5.584E-01  8.814E-01
   1   13    6     8     1    1.9586E+02  1.0348E+00   1.9482E+02  0.000E+00  0.000E+00  0.000E+00  1.02499E+03  3.110E+00  4.510E+01  4.595E-01  7.506E-01
   1   13    5     8     2    1.9482E+02  2.4610E-01   1.9458E+02  0.000E+00  0.000E+00  0.000E+00  1.01873E+03  3.106E+00  4.504E+01  4.590E-01  1.787E-01
   1   13    4     8     3    1.9458E+02 -2.2616E+00   1.9684E+02  0.000E+00  0.000E+00  0.000E+00  1.01249E+03  3.112E+00  4.513E+01  4.599E+00 -1.639E-01
   1   13    3     8     4    1.9684E+02 -3.5403E+00   2.0038E+02  0.000E+00  0.000E+00  0.000E+00  1.00625E+03  3.130E+00  4.538E+01  4.624E+00 -2.552E-01
   1   13    2     8     5    2.0038E+02 -2.5576E+00   2.0293E+02  0.000E+00  0.000E+00  0.000E+00  1.00002E+03  3.147E+00  4.564E+01  4.651E+00 -1.833E-01
   1   13    1     8     6    2.0293E+02 -1.9957E+00   2.0493E+02  0.000E+00  0.000E+00  0.000E+00  9.95036E+02  3.161E+00  4.583E+01  2.802E+00 -2.374E-01
   1    8    6     9     1    0.0000E+00  0.0000E+00   0.0000E+00  0.000E+00  0.000E+00  0.000E+00  1.07875E+03  0.000E+00  4.000E+00  0.000E+00  1.000E+00
   1    8    5     9     2    0.0000E+00  0.0000E+00   0.0000E+00  0.000E+00  0.000E+00  0.000E+00  1.07825E+03  0.000E+00  4.000E+00  0.000E+00  1.000E+00





UNSATURATED ZONE PACKAGE VOLUMETRIC BUDGET FOR  TIME STEP    30 STRESS PERIOD   18
  ------------------------------------------------------------------------------



     CUMULATIVE VOLUMES      L**3       RATES FOR THIS TIME STEP      L**3/T
     ------------------                 ------------------------

           IN:                                      IN:
           ---                                      ---
        INFILTRATION =   471284278.8268          INFILTRATION =           8.3175

          OUT:                                     OUT:
          ----                                     ----
              UZF ET =   470538811.2827                UZF ET =           8.3175
        UZF RECHARGE =       73224.0000          UZF RECHARGE =       0.0000E+00

            IN - OUT =      672243.5441              IN - OUT =       0.0000E+00

          STORAGE:                                 STORAGE:
          --------                                 --------
      STORAGE CHANGE =      672243.4909        STORAGE CHANGE =       1.6599E-15

 PERCENT DISCREPANCY IS DIFFERENCE BETWEEN IN-OUT MINUS CHANGE IN STORAGE
 DIVIDED BY THE AVERAGE OF IN AND OUT TIMES 100

 PERCENT DISCREPANCY =           0.00     PERCENT DISCREPANCY =           0.00






1
  VOLUMETRIC BUDGET FOR AGRICULTURAL FIELDS AT  END OF TIME STEP   30, STRESS PERIOD  18
  ------------------------------------------------------------------------------

     CUMULATIVE VOLUMES      L**3       RATES FOR THIS TIME STEP      L**3/T
     ------------------                 ------------------------

           IN:                                      IN:
           ---                                      ---
               AG WELLS  =   433319104.0000                 AG WELLS  =           7.4700
      DIVERSION SEGMENTS =           0.0000        DIVERSION SEGMENTS =           0.0000
       IRRIGATION PONDS  =           0.0000         IRRIGATION PONDS  =           0.0000
           GW IRRIGATION =           0.0000             GW IRRIGATION =           0.0000
           SW IRRIGATION =           0.0000             SW IRRIGATION =           0.0000
        SYSTEM LOSSES GW =           0.0000          SYSTEM LOSSES GW =           0.0000
        SYSTEM LOSSES SW =           0.0000          SYSTEM LOSSES SW =           0.0000

                TOTAL IN =   433319104.0000                  TOTAL IN =           7.4700

          OUT:                                     OUT:
          ----                                     ----
               AG WELLS  =           0.0000                 AG WELLS  =           0.0000
      DIVERSION SEGMENTS =           0.0000        DIVERSION SEGMENTS =           0.0000
       IRRIGATION PONDS  =           0.0000         IRRIGATION PONDS  =           0.0000
           GW IRRIGATION =   433319104.0000             GW IRRIGATION =           7.4700
           SW IRRIGATION =           0.0000             SW IRRIGATION =           0.0000
        SYSTEM LOSSES GW =           0.0000          SYSTEM LOSSES GW =           0.0000
        SYSTEM LOSSES SW =           0.0000          SYSTEM LOSSES SW =           0.0000

               TOTAL OUT =   433319104.0000                 TOTAL OUT =           7.4700

                IN - OUT =           0.0000                  IN - OUT =           0.0000

     PERCENT DISCREPANCY =           0.00         PERCENT DISCREPANCY =           0.00



1
  VOLUMETRIC BUDGET FOR ENTIRE MODEL AT END OF TIME STEP   30, STRESS PERIOD  18
  ------------------------------------------------------------------------------

     CUMULATIVE VOLUMES      L**3       RATES FOR THIS TIME STEP      L**3/T
     ------------------                 ------------------------

           IN:                                      IN:
           ---                                      ---
             STORAGE     =   602743296.0000               STORAGE     =           5.6547
       CONSTANT HEAD     =           0.0000         CONSTANT HEAD     =           0.0000
     HEAD DEP BOUNDS     =    12798869.0000       HEAD DEP BOUNDS     =           0.2858
      STREAM LEAKAGE     =   544737408.0000        STREAM LEAKAGE     =          12.6753
        UZF RECHARGE     =       73223.9531          UZF RECHARGE     =           0.0000
               GW ET     =           0.0000                 GW ET     =           0.0000
     SURFACE LEAKAGE     =           0.0000       SURFACE LEAKAGE     =           0.0000
           AG WELLS      =           0.0000             AG WELLS      =           0.0000

                TOTAL IN =  1160352768.0000                  TOTAL IN =          18.6158

          OUT:                                     OUT:
          ----                                     ----
             STORAGE     =   237066464.0000               STORAGE     =           0.4446
       CONSTANT HEAD     =           0.0000         CONSTANT HEAD     =           0.0000
     HEAD DEP BOUNDS     =    13107601.0000       HEAD DEP BOUNDS     =           0.2944
      STREAM LEAKAGE     =   469714272.0000        STREAM LEAKAGE     =          10.3552
        UZF RECHARGE     =           0.0000          UZF RECHARGE     =           0.0000
               GW ET     =     7145780.0000                 GW ET     =       5.0111E-02
     SURFACE LEAKAGE     =           0.0000       SURFACE LEAKAGE     =           0.0000
           AG WELLS      =   433319104.0000             AG WELLS      =           7.4700

               TOTAL OUT =  1160353280.0000                 TOTAL OUT =          18.6143

                IN - OUT =        -512.0000                  IN - OUT =       1.4954E-03

     PERCENT DISCREPANCY =          -0.00         PERCENT DISCREPANCY =           0.01






         TIME SUMMARY AT END OF TIME STEP   30 IN STRESS PERIOD   18
                    SECONDS     MINUTES      HOURS       DAYS        YEARS
                    -----------------------------------------------------------
   TIME STEP LENGTH  87667.      1461.1      24.352      1.0147     2.77799E-03
 STRESS PERIOD TIME 2.63000E+06  43833.      730.56      30.440     8.33397E-02
         TOTAL TIME 4.47965E+07 7.46608E+05  12443.      518.48      1.4195    
1
1
                            STRESS PERIOD NO.   19, LENGTH =   2630000.    
                            -----------------------------------------------

                              NUMBER OF TIME STEPS =    30

                               MULTIPLIER FOR DELT =     1.000

                            INITIAL TIME STEP SIZE =   87666.66    

 REUSING NON-PARAMETER GHB CELLS FROM LAST STRESS PERIOD

      2 GHB CELLS

 REUSING STREAM SEGMENT DATA FROM LAST STRESS PERIOD



            AREAL INFILTRATION RATE
 READING ON UNIT   19 WITH FORMAT: (FREE)              

            1           2           3           4           5           6           7           8           9          10
 ........................................................................................................................
   1   1.0000E-10  2.0000E-10   0.000       0.000       0.000       0.000       0.000       0.000       0.000       0.000    
   2   2.0000E-10  1.0000E-10  2.0000E-10   0.000       0.000      8.0000E-10  8.0000E-10  5.0000E-10   0.000       0.000    
   3    0.000      5.0000E-10  1.0000E-10  1.0000E-10  8.0000E-10  8.0000E-10  5.0000E-10  5.0000E-10   0.000       0.000    
   4   8.0000E-10  5.0000E-10  1.0000E-10  1.0000E-10  1.0000E-10  1.0000E-10  1.0000E-10  1.0000E-10  2.0000E-10   0.000    
   5   8.0000E-10  5.0000E-10  1.0000E-10  1.0000E-10  1.0000E-10  1.0000E-10  1.0000E-10  1.0000E-10  1.0000E-10  1.0000E-10
   6   8.0000E-10  5.0000E-10  5.0000E-10  2.0000E-10  2.0000E-10  1.0000E-10  1.0000E-10  1.0000E-10  1.0000E-10  5.0000E-10
   7   8.0000E-10  5.0000E-10  5.0000E-10  2.0000E-10  2.0000E-10  1.0000E-10  1.0000E-10  2.0000E-10  2.0000E-10   0.000    
   8    0.000      5.0000E-10  5.0000E-10  2.0000E-10  2.0000E-10  1.0000E-10  1.0000E-10  2.0000E-10  5.0000E-10   0.000    
   9    0.000      5.0000E-10  5.0000E-10  2.0000E-10  2.0000E-10  1.0000E-10  1.0000E-10  2.0000E-10  5.0000E-10   0.000    
  10    0.000      5.0000E-10  5.0000E-10  2.0000E-10  2.0000E-10  1.0000E-10  1.0000E-10  2.0000E-10  5.0000E-10  8.0000E-10
  11    0.000      1.0000E-10  1.0000E-10  1.0000E-10  1.0000E-10  1.0000E-10  1.0000E-10  2.0000E-10  5.0000E-10   0.000    
  12   1.0000E-10  1.0000E-10  1.0000E-10  1.0000E-10  1.0000E-10  1.0000E-10  1.0000E-10  1.0000E-10  2.0000E-10   0.000    
  13   1.0000E-10  1.0000E-10  2.0000E-10  2.0000E-10  2.0000E-10  2.0000E-10  2.0000E-10  1.0000E-10  1.0000E-10   0.000    
  14    0.000      2.0000E-10  5.0000E-10  5.0000E-10  5.0000E-10  5.0000E-10  5.0000E-10  2.0000E-10  1.0000E-10   0.000    
  15    0.000       0.000      8.0000E-10  8.0000E-10  8.0000E-10  8.0000E-10   0.000       0.000       0.000       0.000    

                  ET RATE =  1.500000E-07

 USING ET EXTINCTION DEPTH FROM PREVIOUS STRESS PERIOD. CURRENT PERIOD IS:      19

 USING EXTINCTION WATER CONTENT FROM PREVIOUS STRESS PERIOD. CURRENT PERIOD IS:      19

 USING AIR ENTRY PRESSURE FROM PREVIOUS STRESS PERIOD. CURRENT PERIOD IS:      19

 USING ROOT PRESSURE HEAD FROM PREVIOUS STRESS PERIOD. CURRENT PERIOD IS:      19

 USING ROOT ACTIVITY FROM PREVIOUS STRESS PERIOD. CURRENT PERIOD IS:      19

 PROCESSING AG STRESS PERIOD DATA

 READING AG STRESS PERIOD DATA

 READING IRRIGATION SEGMENT

 READING IRRIGATION WELL

 READING SUPPLEMENTAL WELL

 NO IRRPOND OR REUSING IRRPOND DATA FROM LAST STRESS PERIOD

 END PROCESSING AG STRESS PERIOD DATA OPTIONS
 
 SOLVING FOR HEAD 
                                                   Max.-Head-Change                         Max.-Flux-Residual
  Residual-Control   Outer-Iter.   Inner-Iter.     Column Row Layer    Maximum-Head-Change  Column Row Layer    Maximum-Flux-Residual          L2-NORM 
          0                 1           2             4    7     1      -0.5761965061E-01       4    7    1        -0.3012280469E+01      0.7152911414E+01
          0                 2           2             4    7     1       0.5604793439E-02       4    7    1         0.3012263108E+00      0.7152647391E+00
          0                 3           2             4    7     1      -0.3816659226E-03       4    7    1        -0.2108586730E-01      0.5006689529E-01
          0                 4           1             4    7     1       0.1518684315E-04       4    7    1         0.8624131090E-03      0.2047662297E-02

    ------------------------------------------------
       NWT REQUIRED            4 OUTER ITERATIONS 
       AND A TOTAL OF          7 INNER ITERATIONS.
    ------------------------------------------------

 OUTPUT CONTROL FOR STRESS PERIOD   19   TIME STEP    1
    PRINT BUDGET
    SAVE BUDGET
 UBDSV1 SAVING "         STORAGE" ON UNIT 102 AT TIME STEP 1, STRESS PERIOD 19
 UBDSV2 SAVING "   CONSTANT HEAD" ON UNIT 102 AT TIME STEP 1, STRESS PERIOD 19
 UBDSV1 SAVING "FLOW RIGHT FACE " ON UNIT 102 AT TIME STEP 1, STRESS PERIOD 19
 UBDSV1 SAVING "FLOW FRONT FACE " ON UNIT 102 AT TIME STEP 1, STRESS PERIOD 19

  HEAD DEP BOUNDS   PERIOD   19   STEP     1
 BOUNDARY      1   LAYER   1   ROW    13   COL     1   RATE   -0.294376    
 BOUNDARY      2   LAYER   1   ROW    14   COL     9   RATE    0.285796    



 STREAM LISTING     PERIOD     19   STEP        1

 LAYER ROW COL. STREAM  RCH.  FLOW INTO     FLOW TO   FLOW OUT OF   OVRLND.     DIRECT     STREAM       STREAM     STREAM     STREAM   STREAMBED  STREAMBED
                SEG.NO.  NO.  STRM. RCH.    AQUIFER    STRM. RCH.    RUNOFF     PRECIP       ET          HEAD       DEPTH      WIDTH   CONDCTNC.   GRADIENT

   1    1    1     1     1    4.3652E+01  3.1614E-01   4.3336E+01  0.000E+00  0.000E+00  0.000E+00  1.09441E+03  1.357E+00  1.612E+01  7.255E-02  1.452E+00
   1    2    2     1     2    4.3336E+01  4.8972E-01   4.2846E+01  0.000E+00  0.000E+00  0.000E+00  1.08941E+03  1.355E+00  1.607E+01  1.125E-01  1.452E+00
   1    3    3     1     3    4.2846E+01  4.1777E-01   4.2428E+01  0.000E+00  0.000E+00  0.000E+00  1.08377E+03  1.351E+00  1.600E+01  9.601E-02  1.450E+00
   1    3    4     1     4    4.2428E+01  3.8480E-01   4.2043E+01  0.000E+00  0.000E+00  0.000E+00  1.07876E+03  1.349E+00  1.594E+01  8.849E-02  1.450E+00
   1    4    5     2     1    4.0043E+01  3.5862E-01   3.9685E+01  0.000E+00  0.000E+00  0.000E+00  1.07353E+03  1.598E+00  1.200E+01  7.800E-02  1.533E+00
   1    5    6     2     2    3.9685E+01  2.7540E-01   3.9409E+01  0.000E+00  0.000E+00  0.000E+00  1.06810E+03  1.590E+00  1.200E+01  6.000E-02  1.530E+00
   1    6    6     2     3    3.9409E+01  2.7500E-01   3.9134E+01  0.000E+00  0.000E+00  0.000E+00  1.06338E+03  1.583E+00  1.200E+01  6.000E-02  1.528E+00
   1    7    6     2     4    3.9134E+01  2.7461E-01   3.8860E+01  0.000E+00  0.000E+00  0.000E+00  1.05865E+03  1.577E+00  1.200E+01  6.000E-02  1.526E+00
   1    8    6     2     5    3.8860E+01  2.7421E-01   3.8585E+01  0.000E+00  0.000E+00  0.000E+00  1.05393E+03  1.570E+00  1.200E+01  6.000E-02  1.523E+00
   1    3    5     3     1    2.0000E+00  2.8252E-01   1.7175E+00  0.000E+00  0.000E+00  0.000E+00  1.07555E+03  1.909E+00  9.636E+00  7.227E-02  1.955E+00
   1    3    6     3     2    1.7175E+00  2.4905E-01   1.4684E+00  0.000E+00  0.000E+00  0.000E+00  1.07264E+03  1.727E+00  8.909E+00  6.682E-02  1.864E+00
   1    3    7     3     3    1.4684E+00  1.9718E-01   1.2712E+00  0.000E+00  0.000E+00  0.000E+00  1.06987E+03  1.555E+00  8.218E+00  5.547E-02  1.777E+00
   1    4    8     3     4    1.2712E+00  2.2567E-01   1.0456E+00  0.000E+00  0.000E+00  0.000E+00  1.06682E+03  1.364E+00  7.455E+00  6.709E-02  1.682E+00
   1    5    8     3     5    1.0456E+00  1.5790E-01   8.8768E-01  0.000E+00  0.000E+00  0.000E+00  1.06362E+03  1.164E+00  6.655E+00  4.991E-02  1.582E+00
   1    6    8     3     6    8.8768E-01  5.5980E-02   8.3170E-01  0.000E+00  0.000E+00  0.000E+00  1.06158E+03  1.036E+00  6.145E+00  1.844E-02  1.518E+00
   1    5   10     4     1    1.0000E+01  9.0919E-02   9.9091E+00  0.000E+00  0.000E+00  0.000E+00  1.07836E+03  6.368E-01  1.000E+01  2.500E-02  1.212E+00
   1    5    9     4     2    9.9091E+00  1.8158E-01   9.7275E+00  0.000E+00  0.000E+00  0.000E+00  1.07154E+03  6.315E-01  1.000E+01  5.000E-02  1.211E+00
   1    6    8     4     3    9.7275E+00  1.2689E-01   9.6006E+00  0.000E+00  0.000E+00  0.000E+00  1.06381E+03  6.256E-01  1.000E+01  3.500E-02  1.209E+00
   1    6    8     5     1    1.0432E+01  2.2686E-01   1.0205E+01  0.000E+00  0.000E+00  0.000E+00  1.05868E+03  6.790E-01  1.542E+01  6.166E-02  1.226E+00
   1    7    7     5     2    1.0205E+01  2.7894E-01   9.9265E+00  0.000E+00  0.000E+00  0.000E+00  1.05417E+03  6.732E-01  1.519E+01  7.594E-02  1.224E+00
   1    8    7     5     3    9.9265E+00  1.9221E-01   9.7343E+00  0.000E+00  0.000E+00  0.000E+00  1.04992E+03  6.676E-01  1.497E+01  5.241E-02  1.223E+00
   1    8    6     5     4    9.7343E+00  1.3577E-01   9.5985E+00  0.000E+00  0.000E+00  0.000E+00  1.04691E+03  6.637E-01  1.482E+01  3.706E-02  1.221E+00
   1    9    6     6     1    4.8184E+01  2.8841E-01   4.7896E+01  0.000E+00  0.000E+00  0.000E+00  1.04453E+03  1.807E+00  1.200E+01  6.000E-02  1.602E+00
   1   10    7     6     2    4.7896E+01  2.8802E-01   4.7608E+01  0.000E+00  0.000E+00  0.000E+00  1.03998E+03  1.800E+00  1.200E+01  6.000E-02  1.600E+00
   1   11    7     6     3    4.7608E+01  2.8763E-01   4.7320E+01  0.000E+00  0.000E+00  0.000E+00  1.03543E+03  1.794E+00  1.200E+01  6.000E-02  1.598E+00
   1   12    7     6     4    4.7320E+01  2.8724E-01   4.7033E+01  0.000E+00  0.000E+00  0.000E+00  1.03088E+03  1.787E+00  1.200E+01  6.000E-02  1.596E+00
   1   13    7     6     5    4.7033E+01  1.5544E-02   4.7017E+01  0.000E+00  0.000E+00  0.000E+00  1.02769E+03  1.784E+00  1.200E+01  2.400E-02  2.159E-01
   1   14    9     7     1    1.5000E+02  1.3364E+00   1.4866E+02  0.000E+00  0.000E+00  0.000E+00  1.03987E+03  2.288E+00  5.529E+01  5.593E-01  7.964E-01
   1   13    8     7     2    1.4866E+02  1.8409E+00   1.4682E+02  0.000E+00  0.000E+00  0.000E+00  1.03478E+03  2.279E+00  5.526E+01  6.148E-01  9.981E-01
   1   13    7     7     3    1.4682E+02  1.4768E+00   1.4535E+02  0.000E+00  0.000E+00  0.000E+00  1.02969E+03  2.270E+00  5.522E+01  5.584E-01  8.815E-01
   1   13    6     8     1    1.9236E+02  1.0186E+00   1.9134E+02  0.000E+00  0.000E+00  0.000E+00  1.02496E+03  3.089E+00  4.479E+01  4.565E-01  7.439E-01
   1   13    5     8     2    1.9134E+02  2.3523E-01   1.9111E+02  0.000E+00  0.000E+00  0.000E+00  1.01871E+03  3.085E+00  4.474E+01  4.559E-01  1.720E-01
   1   13    4     8     3    1.9111E+02 -2.3338E+00   1.9344E+02  0.000E+00  0.000E+00  0.000E+00  1.01247E+03  3.092E+00  4.483E+01  4.568E+00 -1.703E-01
   1   13    3     8     4    1.9344E+02 -3.5979E+00   1.9704E+02  0.000E+00  0.000E+00  0.000E+00  1.00623E+03  3.110E+00  4.509E+01  4.595E+00 -2.610E-01
   1   13    2     8     5    1.9704E+02 -2.6247E+00   1.9967E+02  0.000E+00  0.000E+00  0.000E+00  1.00000E+03  3.128E+00  4.536E+01  4.622E+00 -1.893E-01
   1   13    1     8     6    1.9967E+02 -2.0333E+00   2.0170E+02  0.000E+00  0.000E+00  0.000E+00  9.95017E+02  3.142E+00  4.556E+01  2.785E+00 -2.433E-01
   1    8    6     9     1    0.0000E+00  0.0000E+00   0.0000E+00  0.000E+00  0.000E+00  0.000E+00  1.07875E+03  0.000E+00  4.000E+00  0.000E+00  1.000E+00
   1    8    5     9     2    0.0000E+00  0.0000E+00   0.0000E+00  0.000E+00  0.000E+00  0.000E+00  1.07825E+03  0.000E+00  4.000E+00  0.000E+00  1.000E+00



 UBDSV3 SAVING "           GW ET" ON UNIT  61 AT TIME STEP 1, STRESS PERIOD 19
 UBDSV3 SAVING "    UZF RECHARGE" ON UNIT  61 AT TIME STEP 1, STRESS PERIOD 19
 UBDSV3 SAVING " SURFACE LEAKAGE" ON UNIT  61 AT TIME STEP 1, STRESS PERIOD 19
 UBDSV3 SAVING "       HORT+DUNN" ON UNIT  61 AT TIME STEP 1, STRESS PERIOD 19
 UBDSV3 SAVING "  STORAGE CHANGE" ON UNIT  61 AT TIME STEP 1, STRESS PERIOD 19


UNSATURATED ZONE PACKAGE VOLUMETRIC BUDGET FOR  TIME STEP     1 STRESS PERIOD   19
  ------------------------------------------------------------------------------



     CUMULATIVE VOLUMES      L**3       RATES FOR THIS TIME STEP      L**3/T
     ------------------                 ------------------------

           IN:                                      IN:
           ---                                      ---
        INFILTRATION =   473328446.3227          INFILTRATION =          23.3175

          OUT:                                     OUT:
          ----                                     ----
              UZF ET =   472582978.7786                UZF ET =          23.3175
        UZF RECHARGE =       73224.0000          UZF RECHARGE =       0.0000E+00

            IN - OUT =      672243.5441              IN - OUT =       0.0000E+00

          STORAGE:                                 STORAGE:
          --------                                 --------
      STORAGE CHANGE =      672243.4909        STORAGE CHANGE =       1.6599E-16

 PERCENT DISCREPANCY IS DIFFERENCE BETWEEN IN-OUT MINUS CHANGE IN STORAGE
 DIVIDED BY THE AVERAGE OF IN AND OUT TIMES 100

 PERCENT DISCREPANCY =           0.00     PERCENT DISCREPANCY =           0.00






 

            AG WELLS      PERIOD   19   STEP   1
 AG WELL      1   LAYER   1   ROW     6   COL     4   RATE    -3.74500    
 AG WELL      2   LAYER   1   ROW     6   COL     5   RATE    -3.74500    
 AG WELL      3   LAYER   1   ROW     7   COL     4   RATE    -3.74500    
 AG WELL      4   LAYER   1   ROW     7   COL     5   RATE    -3.74500    
 AG WELL      5   LAYER   1   ROW     8   COL     4   RATE    -3.74500    
 AG WELL      6   LAYER   1   ROW     8   COL     5   RATE    -3.74500    
 
 

   DIVERSION SEGMENTS     PERIOD   19   STEP   1
 SEGMENT      9   RATE     0.00000    
 
 

        SW IRRIGATION     PERIOD   19   STEP   1
 SEGMENT      9   ROW     6   COL     4   RATE     0.00000    
 SEGMENT      9   ROW     6   COL     5   RATE     0.00000    
 SEGMENT      9   ROW     7   COL     4   RATE     0.00000    
 SEGMENT      9   ROW     7   COL     5   RATE     0.00000    
 SEGMENT      9   ROW     8   COL     4   RATE     0.00000    
 SEGMENT      9   ROW     8   COL     5   RATE     0.00000    
 
 

        GW IRRIGATION     PERIOD   19   STEP   1
 AG WELL      1   ROW     6   COL     4   RATE     3.74500    
 AG WELL      2   ROW     6   COL     5   RATE     3.74500    
 AG WELL      3   ROW     7   COL     4   RATE     3.74500    
 AG WELL      4   ROW     7   COL     5   RATE     3.74500    
 AG WELL      5   ROW     8   COL     4   RATE     3.74500    
 AG WELL      6   ROW     8   COL     5   RATE     3.74500    
 
1
  VOLUMETRIC BUDGET FOR AGRICULTURAL FIELDS AT  END OF TIME STEP    1, STRESS PERIOD  19
  ------------------------------------------------------------------------------

     CUMULATIVE VOLUMES      L**3       RATES FOR THIS TIME STEP      L**3/T
     ------------------                 ------------------------

           IN:                                      IN:
           ---                                      ---
               AG WELLS  =   435288960.0000                 AG WELLS  =          22.4700
      DIVERSION SEGMENTS =           0.0000        DIVERSION SEGMENTS =           0.0000
       IRRIGATION PONDS  =           0.0000         IRRIGATION PONDS  =           0.0000
           GW IRRIGATION =           0.0000             GW IRRIGATION =           0.0000
           SW IRRIGATION =           0.0000             SW IRRIGATION =           0.0000
        SYSTEM LOSSES GW =           0.0000          SYSTEM LOSSES GW =           0.0000
        SYSTEM LOSSES SW =           0.0000          SYSTEM LOSSES SW =           0.0000

                TOTAL IN =   435288960.0000                  TOTAL IN =          22.4700

          OUT:                                     OUT:
          ----                                     ----
               AG WELLS  =           0.0000                 AG WELLS  =           0.0000
      DIVERSION SEGMENTS =           0.0000        DIVERSION SEGMENTS =           0.0000
       IRRIGATION PONDS  =           0.0000         IRRIGATION PONDS  =           0.0000
           GW IRRIGATION =   435288960.0000             GW IRRIGATION =          22.4700
           SW IRRIGATION =           0.0000             SW IRRIGATION =           0.0000
        SYSTEM LOSSES GW =           0.0000          SYSTEM LOSSES GW =           0.0000
        SYSTEM LOSSES SW =           0.0000          SYSTEM LOSSES SW =           0.0000

               TOTAL OUT =   435288960.0000                 TOTAL OUT =          22.4700

                IN - OUT =           0.0000                  IN - OUT =           0.0000

     PERCENT DISCREPANCY =           0.00         PERCENT DISCREPANCY =           0.00



1
  VOLUMETRIC BUDGET FOR ENTIRE MODEL AT END OF TIME STEP    1, STRESS PERIOD  19
  ------------------------------------------------------------------------------

     CUMULATIVE VOLUMES      L**3       RATES FOR THIS TIME STEP      L**3/T
     ------------------                 ------------------------

           IN:                                      IN:
           ---                                      ---
             STORAGE     =   604588288.0000               STORAGE     =          21.0456
       CONSTANT HEAD     =           0.0000         CONSTANT HEAD     =           0.0000
     HEAD DEP BOUNDS     =    12823924.0000       HEAD DEP BOUNDS     =           0.2858
      STREAM LEAKAGE     =   545836992.0000        STREAM LEAKAGE     =          12.5424
        UZF RECHARGE     =       73223.9531          UZF RECHARGE     =           0.0000
               GW ET     =           0.0000                 GW ET     =           0.0000
     SURFACE LEAKAGE     =           0.0000       SURFACE LEAKAGE     =           0.0000
           AG WELLS      =           0.0000             AG WELLS      =           0.0000

                TOTAL IN =  1163322368.0000                  TOTAL IN =          33.8738

          OUT:                                     OUT:
          ----                                     ----
             STORAGE     =   237100496.0000               STORAGE     =           0.3881
       CONSTANT HEAD     =           0.0000         CONSTANT HEAD     =           0.0000
     HEAD DEP BOUNDS     =    13133408.0000       HEAD DEP BOUNDS     =           0.2944
      STREAM LEAKAGE     =   470642624.0000        STREAM LEAKAGE     =          10.5897
        UZF RECHARGE     =           0.0000          UZF RECHARGE     =           0.0000
               GW ET     =     7157326.5000                 GW ET     =           0.1317
     SURFACE LEAKAGE     =           0.0000       SURFACE LEAKAGE     =           0.0000
           AG WELLS      =   435288960.0000             AG WELLS      =          22.4700

               TOTAL OUT =  1163322880.0000                 TOTAL OUT =          33.8739

                IN - OUT =        -512.0000                  IN - OUT =      -7.2479E-05

     PERCENT DISCREPANCY =          -0.00         PERCENT DISCREPANCY =          -0.00






         TIME SUMMARY AT END OF TIME STEP    1 IN STRESS PERIOD   19
                    SECONDS     MINUTES      HOURS       DAYS        YEARS
                    -----------------------------------------------------------
   TIME STEP LENGTH  87667.      1461.1      24.352      1.0147     2.77799E-03
 STRESS PERIOD TIME  87667.      1461.1      24.352      1.0147     2.77799E-03
         TOTAL TIME 4.48841E+07 7.48069E+05  12468.      519.49      1.4223    
1
 
 SOLVING FOR HEAD 
                                                   Max.-Head-Change                         Max.-Flux-Residual
  Residual-Control   Outer-Iter.   Inner-Iter.     Column Row Layer    Maximum-Head-Change  Column Row Layer    Maximum-Flux-Residual          L2-NORM 
          0                 1           2             4    7     1      -0.5724545606E-01       4    7    1        -0.2993861843E+01      0.7030078847E+01
          0                 2           2             4    7     1       0.5568392134E-02       4    7    1         0.2993842828E+00      0.7029847562E+00
          0                 3           2             4    7     1      -0.3791871522E-03       4    7    1        -0.2095692686E-01      0.4920753000E-01
          0                 4           1             4    7     1       0.1508821023E-04       4    7    1         0.8571394285E-03      0.2012494202E-02

    ------------------------------------------------
       NWT REQUIRED            4 OUTER ITERATIONS 
       AND A TOTAL OF          7 INNER ITERATIONS.
    ------------------------------------------------

 NO OUTPUT CONTROL FOR STRESS PERIOD   19   TIME STEP    2
 
 SOLVING FOR HEAD 
                                                   Max.-Head-Change                         Max.-Flux-Residual
  Residual-Control   Outer-Iter.   Inner-Iter.     Column Row Layer    Maximum-Head-Change  Column Row Layer    Maximum-Flux-Residual          L2-NORM 
          0                 1           2             4    7     1      -0.5685321703E-01       4    7    1        -0.2974407962E+01      0.6913137595E+01
          0                 2           2             4    7     1       0.5530235870E-02       4    7    1         0.2974387482E+00      0.6912940305E+00
          0                 3           2             4    7     1      -0.3765888725E-03       4    7    1        -0.2082074075E-01      0.4838949986E-01
          0                 4           1             4    7     1       0.1498482265E-04       4    7    1         0.8515694067E-03      0.1979047112E-02

    ------------------------------------------------
       NWT REQUIRED            4 OUTER ITERATIONS 
       AND A TOTAL OF          7 INNER ITERATIONS.
    ------------------------------------------------

 NO OUTPUT CONTROL FOR STRESS PERIOD   19   TIME STEP    3
 
 SOLVING FOR HEAD 
                                                   Max.-Head-Change                         Max.-Flux-Residual
  Residual-Control   Outer-Iter.   Inner-Iter.     Column Row Layer    Maximum-Head-Change  Column Row Layer    Maximum-Flux-Residual          L2-NORM 
          0                 1           2             4    7     1      -0.5644501107E-01       4    7    1        -0.2954033205E+01      0.6801799532E+01
          0                 2           2             4    7     1       0.5490526715E-02       4    7    1         0.2954011433E+00      0.6801628534E+00
          0                 3           2             4    7     1      -0.3738848443E-03       4    7    1        -0.2067810958E-01      0.4761048566E-01
          0                 4           1             4    7     1       0.1487722635E-04       4    7    1         0.8457357669E-03      0.1947220979E-02

    ------------------------------------------------
       NWT REQUIRED            4 OUTER ITERATIONS 
       AND A TOTAL OF          7 INNER ITERATIONS.
    ------------------------------------------------

 NO OUTPUT CONTROL FOR STRESS PERIOD   19   TIME STEP    4
 
 SOLVING FOR HEAD 
                                                   Max.-Head-Change                         Max.-Flux-Residual
  Residual-Control   Outer-Iter.   Inner-Iter.     Column Row Layer    Maximum-Head-Change  Column Row Layer    Maximum-Flux-Residual          L2-NORM 
          0                 1           2             4    7     1      -0.5602239196E-01       4    7    1        -0.2932823217E+01      0.6695618818E+01
          0                 2           2             4    7     1       0.5449415790E-02       4    7    1         0.2932800315E+00      0.6695469585E+00
          0                 3           2             4    7     1      -0.3710853583E-03       4    7    1        -0.2052963275E-01      0.4686754706E-01
          0                 4           1             4    7     1       0.1476583211E-04       4    7    1         0.8396630556E-03      0.1916820529E-02

    ------------------------------------------------
       NWT REQUIRED            4 OUTER ITERATIONS 
       AND A TOTAL OF          7 INNER ITERATIONS.
    ------------------------------------------------

 NO OUTPUT CONTROL FOR STRESS PERIOD   19   TIME STEP    5
 
 SOLVING FOR HEAD 
                                                   Max.-Head-Change                         Max.-Flux-Residual
  Residual-Control   Outer-Iter.   Inner-Iter.     Column Row Layer    Maximum-Head-Change  Column Row Layer    Maximum-Flux-Residual          L2-NORM 
          0                 1           2             4    7     1      -0.5558681963E-01       4    7    1        -0.2910858565E+01      0.6594198624E+01
          0                 2           2             4    7     1       0.5407045089E-02       4    7    1         0.2910834682E+00      0.6594066899E+00
          0                 3           2             4    7     1      -0.3682000842E-03       4    7    1        -0.2037587418E-01      0.4615786985E-01
          0                 4           1             4    7     1       0.1465102422E-04       4    7    1         0.8333743046E-03      0.1887829866E-02

    ------------------------------------------------
       NWT REQUIRED            4 OUTER ITERATIONS 
       AND A TOTAL OF          7 INNER ITERATIONS.
    ------------------------------------------------

 NO OUTPUT CONTROL FOR STRESS PERIOD   19   TIME STEP    6
 
 SOLVING FOR HEAD 
                                                   Max.-Head-Change                         Max.-Flux-Residual
  Residual-Control   Outer-Iter.   Inner-Iter.     Column Row Layer    Maximum-Head-Change  Column Row Layer    Maximum-Flux-Residual          L2-NORM 
          0                 1           2             4    7     1      -0.5513993021E-01       4    7    1        -0.2888229659E+01      0.6497199733E+01
          0                 2           2             4    7     1       0.5363573744E-02       4    7    1         0.2888204931E+00      0.6497082174E+00
          0                 3           2             4    7     1      -0.3652398584E-03       4    7    1        -0.2021746665E-01      0.4547912134E-01
          0                 4           1             4    7     1       0.1453323429E-04       4    7    1         0.8268954330E-03      0.1860067507E-02

    ------------------------------------------------
       NWT REQUIRED            4 OUTER ITERATIONS 
       AND A TOTAL OF          7 INNER ITERATIONS.
    ------------------------------------------------

 NO OUTPUT CONTROL FOR STRESS PERIOD   19   TIME STEP    7
 
 SOLVING FOR HEAD 
                                                   Max.-Head-Change                         Max.-Flux-Residual
  Residual-Control   Outer-Iter.   Inner-Iter.     Column Row Layer    Maximum-Head-Change  Column Row Layer    Maximum-Flux-Residual          L2-NORM 
          0                 1           2             4    7     1      -0.5468298506E-01       4    7    1        -0.2865006620E+01      0.6404303098E+01
          0                 2           2             4    7     1       0.5319124437E-02       4    7    1         0.2864981175E+00      0.6404197181E+00
          0                 3           2             4    7     1      -0.3622130352E-03       4    7    1        -0.2005490098E-01      0.4482898691E-01
          0                 4           1             4    7     1       0.1441279390E-04       4    7    1         0.8202464705E-03      0.1833480767E-02

    ------------------------------------------------
       NWT REQUIRED            4 OUTER ITERATIONS 
       AND A TOTAL OF          7 INNER ITERATIONS.
    ------------------------------------------------

 NO OUTPUT CONTROL FOR STRESS PERIOD   19   TIME STEP    8
 
 SOLVING FOR HEAD 
                                                   Max.-Head-Change                         Max.-Flux-Residual
  Residual-Control   Outer-Iter.   Inner-Iter.     Column Row Layer    Maximum-Head-Change  Column Row Layer    Maximum-Flux-Residual          L2-NORM 
          0                 1           2             4    7     1      -0.5421743962E-01       4    7    1        -0.2841269561E+01      0.6315248871E+01
          0                 2           2             4    7     1       0.5273838723E-02       4    7    1         0.2841243513E+00      0.6315152570E+00
          0                 3           2             4    7     1      -0.3591292542E-03       4    7    1        -0.1988873784E-01      0.4420573119E-01
          0                 4           1             4    7     1       0.1429008745E-04       4    7    1         0.8134503967E-03      0.1807995145E-02

    ------------------------------------------------
       NWT REQUIRED            4 OUTER ITERATIONS 
       AND A TOTAL OF          7 INNER ITERATIONS.
    ------------------------------------------------

 NO OUTPUT CONTROL FOR STRESS PERIOD   19   TIME STEP    9
 
 SOLVING FOR HEAD 
                                                   Max.-Head-Change                         Max.-Flux-Residual
  Residual-Control   Outer-Iter.   Inner-Iter.     Column Row Layer    Maximum-Head-Change  Column Row Layer    Maximum-Flux-Residual          L2-NORM 
          0                 1           2             4    7     1      -0.5374424416E-01       4    7    1        -0.2817071884E+01      0.6229765805E+01
          0                 2           2             4    7     1       0.5227809028E-02       4    7    1         0.2817045341E+00      0.6229677728E+00
          0                 3           2             4    7     1      -0.3559948090E-03       4    7    1        -0.1971935101E-01      0.4360748104E-01
          0                 4           1             4    7     1       0.1416536465E-04       4    7    1         0.8065224572E-03      0.1783534488E-02

    ------------------------------------------------
       NWT REQUIRED            4 OUTER ITERATIONS 
       AND A TOTAL OF          7 INNER ITERATIONS.
    ------------------------------------------------

 NO OUTPUT CONTROL FOR STRESS PERIOD   19   TIME STEP   10
 
 SOLVING FOR HEAD 
                                                   Max.-Head-Change                         Max.-Flux-Residual
  Residual-Control   Outer-Iter.   Inner-Iter.     Column Row Layer    Maximum-Head-Change  Column Row Layer    Maximum-Flux-Residual          L2-NORM 
          0                 1           2             4    7     1      -0.5326482121E-01       4    7    1        -0.2792492273E+01      0.6147627335E+01
          0                 2           2             4    7     1       0.5181173709E-02       4    7    1         0.2792465332E+00      0.6147546286E+00
          0                 3           2             4    7     1      -0.3528191220E-03       4    7    1        -0.1954729127E-01      0.4303261342E-01
          0                 4           1             4    7     1       0.1403900117E-04       4    7    1         0.7994852022E-03      0.1760007765E-02

    ------------------------------------------------
       NWT REQUIRED            4 OUTER ITERATIONS 
       AND A TOTAL OF          7 INNER ITERATIONS.
    ------------------------------------------------

 NO OUTPUT CONTROL FOR STRESS PERIOD   19   TIME STEP   11
 
 SOLVING FOR HEAD 
                                                   Max.-Head-Change                         Max.-Flux-Residual
  Residual-Control   Outer-Iter.   Inner-Iter.     Column Row Layer    Maximum-Head-Change  Column Row Layer    Maximum-Flux-Residual          L2-NORM 
          0                 1           2             4    7     1      -0.5277996477E-01       4    7    1        -0.2767575078E+01      0.6068634413E+01
          0                 2           2             4    7     1       0.5134009994E-02       4    7    1         0.2767547828E+00      0.6068559860E+00
          0                 3           2             4    7     1      -0.3496074459E-03       4    7    1        -0.1937286896E-01      0.4247972655E-01
          0                 4           1             4    7     1       0.1391120551E-04       4    7    1         0.7923513169E-03      0.1737394640E-02

    ------------------------------------------------
       NWT REQUIRED            4 OUTER ITERATIONS 
       AND A TOTAL OF          7 INNER ITERATIONS.
    ------------------------------------------------

 NO OUTPUT CONTROL FOR STRESS PERIOD   19   TIME STEP   12
 
 SOLVING FOR HEAD 
                                                   Max.-Head-Change                         Max.-Flux-Residual
  Residual-Control   Outer-Iter.   Inner-Iter.     Column Row Layer    Maximum-Head-Change  Column Row Layer    Maximum-Flux-Residual          L2-NORM 
          0                 1           2             4    7     1      -0.5229080558E-01       4    7    1        -0.2742383523E+01      0.5992581739E+01
          0                 2           2             4    7     1       0.5086439581E-02       4    7    1         0.2742356045E+00      0.5997200445E+00
          0                 3           2             4    7     1      -0.3463680797E-03       4    7    1        -0.1919652660E-01      0.4198023885E-01
          0                 4           1             4    7     1       0.1378230818E-04       4    7    1         0.7851388989E-03      0.1716969664E-02

    ------------------------------------------------
       NWT REQUIRED            4 OUTER ITERATIONS 
       AND A TOTAL OF          7 INNER ITERATIONS.
    ------------------------------------------------

 NO OUTPUT CONTROL FOR STRESS PERIOD   19   TIME STEP   13
 
 SOLVING FOR HEAD 
                                                   Max.-Head-Change                         Max.-Flux-Residual
  Residual-Control   Outer-Iter.   Inner-Iter.     Column Row Layer    Maximum-Head-Change  Column Row Layer    Maximum-Flux-Residual          L2-NORM 
          0                 1           2             4    7     1      -0.5179821336E-01       4    7    1        -0.2716968259E+01      0.5918908547E+01
          0                 2           2             4    7     1       0.5038512439E-02       4    7    1         0.2716940624E+00      0.5918857923E+00
          0                 3           2             4    7     1      -0.3431044214E-03       4    7    1        -0.1901861872E-01      0.4143186441E-01
          0                 4           1             4    7     1       0.1365244425E-04       4    7    1         0.7778624677E-03      0.1694558012E-02

    ------------------------------------------------
       NWT REQUIRED            4 OUTER ITERATIONS 
       AND A TOTAL OF          7 INNER ITERATIONS.
    ------------------------------------------------

 NO OUTPUT CONTROL FOR STRESS PERIOD   19   TIME STEP   14
 
 SOLVING FOR HEAD 
                                                   Max.-Head-Change                         Max.-Flux-Residual
  Residual-Control   Outer-Iter.   Inner-Iter.     Column Row Layer    Maximum-Head-Change  Column Row Layer    Maximum-Flux-Residual          L2-NORM 
          0                 1           2             4    7     1      -0.5130307050E-01       4    7    1        -0.2691376227E+01      0.5847793327E+01
          0                 2           2             4    7     1       0.4990348418E-02       4    7    1         0.2691348502E+00      0.5847745620E+00
          0                 3           2             4    7     1      -0.3398246313E-03       4    7    1        -0.1883947389E-01      0.4093410642E-01
          0                 4           1             4    7     1       0.1352193791E-04       4    7    1         0.7705354146E-03      0.1674203319E-02

    ------------------------------------------------
       NWT REQUIRED            4 OUTER ITERATIONS 
       AND A TOTAL OF          7 INNER ITERATIONS.
    ------------------------------------------------

 NO OUTPUT CONTROL FOR STRESS PERIOD   19   TIME STEP   15
 
 SOLVING FOR HEAD 
                                                   Max.-Head-Change                         Max.-Flux-Residual
  Residual-Control   Outer-Iter.   Inner-Iter.     Column Row Layer    Maximum-Head-Change  Column Row Layer    Maximum-Flux-Residual          L2-NORM 
          0                 1           2             4    7     1      -0.5080601297E-01       4    7    1        -0.2665644017E+01      0.5779182222E+01
          0                 2           2             4    7     1       0.4941998243E-02       4    7    1         0.2665616263E+00      0.5779137136E+00
          0                 3           2             4    7     1      -0.3365321642E-03       4    7    1        -0.1865934817E-01      0.4045386279E-01
          0                 4           1             4    7     1       0.1339092822E-04       4    7    1         0.7631682913E-03      0.1654558992E-02

    ------------------------------------------------
       NWT REQUIRED            4 OUTER ITERATIONS 
       AND A TOTAL OF          7 INNER ITERATIONS.
    ------------------------------------------------

 NO OUTPUT CONTROL FOR STRESS PERIOD   19   TIME STEP   16
 
 SOLVING FOR HEAD 
                                                   Max.-Head-Change                         Max.-Flux-Residual
  Residual-Control   Outer-Iter.   Inner-Iter.     Column Row Layer    Maximum-Head-Change  Column Row Layer    Maximum-Flux-Residual          L2-NORM 
          0                 1           2             4    7     1      -0.5030790887E-01       4    7    1        -0.2639819894E+01      0.5712937879E+01
          0                 2           2             4    7     1       0.4893546343E-02       4    7    1         0.2639792165E+00      0.5712895023E+00
          0                 3           2             4    7     1      -0.3332327688E-03       4    7    1        -0.1847857938E-01      0.3999019381E-01
          0                 4           1             4    7     1       0.1325964177E-04       4    7    1         0.7557748186E-03      0.1635739047E-02

    ------------------------------------------------
       NWT REQUIRED            4 OUTER ITERATIONS 
       AND A TOTAL OF          7 INNER ITERATIONS.
    ------------------------------------------------

 NO OUTPUT CONTROL FOR STRESS PERIOD   19   TIME STEP   17
 
 SOLVING FOR HEAD 
                                                   Max.-Head-Change                         Max.-Flux-Residual
  Residual-Control   Outer-Iter.   Inner-Iter.     Column Row Layer    Maximum-Head-Change  Column Row Layer    Maximum-Flux-Residual          L2-NORM 
          0                 1           2             4    7     1      -0.4980929114E-01       4    7    1        -0.2613934174E+01      0.5648925769E+01
          0                 2           2             4    7     1       0.4845044554E-02       4    7    1         0.2613906520E+00      0.5648884957E+00
          0                 3           2             4    7     1      -0.3299299758E-03       4    7    1        -0.1829737972E-01      0.3954213134E-01
          0                 4           1             4    7     1       0.1312822097E-04       4    7    1         0.7483637505E-03      0.1617271654E-02

    ------------------------------------------------
       NWT REQUIRED            4 OUTER ITERATIONS 
       AND A TOTAL OF          7 INNER ITERATIONS.
    ------------------------------------------------

 NO OUTPUT CONTROL FOR STRESS PERIOD   19   TIME STEP   18
 
 SOLVING FOR HEAD 
                                                   Max.-Head-Change                         Max.-Flux-Residual
  Residual-Control   Outer-Iter.   Inner-Iter.     Column Row Layer    Maximum-Head-Change  Column Row Layer    Maximum-Flux-Residual          L2-NORM 
          0                 1           2             4    7     1      -0.4931092071E-01       4    7    1        -0.2588029182E+01      0.5587033484E+01
          0                 2           2             4    7     1       0.4796566887E-02       4    7    1         0.2588001646E+00      0.5586994417E+00
          0                 3           2             4    7     1      -0.3266288245E-03       4    7    1        -0.1811604540E-01      0.3910891235E-01
          0                 4           1             4    7     1       0.1299686464E-04       4    7    1         0.7409471675E-03      0.1599561846E-02

    ------------------------------------------------
       NWT REQUIRED            4 OUTER ITERATIONS 
       AND A TOTAL OF          7 INNER ITERATIONS.
    ------------------------------------------------

 NO OUTPUT CONTROL FOR STRESS PERIOD   19   TIME STEP   19
 
 SOLVING FOR HEAD 
                                                   Max.-Head-Change                         Max.-Flux-Residual
  Residual-Control   Outer-Iter.   Inner-Iter.     Column Row Layer    Maximum-Head-Change  Column Row Layer    Maximum-Flux-Residual          L2-NORM 
          0                 1           2             4    7     1      -0.4881323060E-01       4    7    1        -0.2562129682E+01      0.5527141240E+01
          0                 2           2             4    7     1       0.4748155453E-02       4    7    1         0.2562102304E+00      0.5527103804E+00
          0                 3           2             4    7     1      -0.3233321827E-03       4    7    1        -0.1793474978E-01      0.3868967403E-01
          0                 4           1             4    7     1       0.1286568836E-04       4    7    1         0.7335321538E-03      0.1582406328E-02

    ------------------------------------------------
       NWT REQUIRED            4 OUTER ITERATIONS 
       AND A TOTAL OF          7 INNER ITERATIONS.
    ------------------------------------------------

 NO OUTPUT CONTROL FOR STRESS PERIOD   19   TIME STEP   20
 
 SOLVING FOR HEAD 
                                                   Max.-Head-Change                         Max.-Flux-Residual
  Residual-Control   Outer-Iter.   Inner-Iter.     Column Row Layer    Maximum-Head-Change  Column Row Layer    Maximum-Flux-Residual          L2-NORM 
          0                 1           2             4    7     1      -0.4831688044E-01       4    7    1        -0.2536272814E+01      0.5469143148E+01
          0                 2           2             4    7     1       0.4699874413E-02       4    7    1         0.2536245629E+00      0.5469107231E+00
          0                 3           2             4    7     1      -0.3200444200E-03       4    7    1        -0.1775375279E-01      0.3828371297E-01
          0                 4           1             4    7     1       0.1273486565E-04       4    7    1         0.7261293831E-03      0.1565805451E-02

    ------------------------------------------------
       NWT REQUIRED            4 OUTER ITERATIONS 
       AND A TOTAL OF          7 INNER ITERATIONS.
    ------------------------------------------------

 NO OUTPUT CONTROL FOR STRESS PERIOD   19   TIME STEP   21
 
 SOLVING FOR HEAD 
                                                   Max.-Head-Change                         Max.-Flux-Residual
  Residual-Control   Outer-Iter.   Inner-Iter.     Column Row Layer    Maximum-Head-Change  Column Row Layer    Maximum-Flux-Residual          L2-NORM 
          0                 1           2             4    7     1      -0.4782235306E-01       4    7    1        -0.2510485435E+01      0.5412959555E+01
          0                 2           2             4    7     1       0.4651770725E-02       4    7    1         0.2510458475E+00      0.5412924949E+00
          0                 3           2             4    7     1      -0.3167687339E-03       4    7    1        -0.1757324242E-01      0.3789044968E-01
          0                 4           1             4    7     1       0.1260452278E-04       4    7    1         0.7187465001E-03      0.1549719353E-02

    ------------------------------------------------
       NWT REQUIRED            4 OUTER ITERATIONS 
       AND A TOTAL OF          7 INNER ITERATIONS.
    ------------------------------------------------

 NO OUTPUT CONTROL FOR STRESS PERIOD   19   TIME STEP   22
 
 SOLVING FOR HEAD 
                                                   Max.-Head-Change                         Max.-Flux-Residual
  Residual-Control   Outer-Iter.   Inner-Iter.     Column Row Layer    Maximum-Head-Change  Column Row Layer    Maximum-Flux-Residual          L2-NORM 
          0                 1           2             4    7     1      -0.4732994895E-01       4    7    1        -0.2484785237E+01      0.5358487754E+01
          0                 2           2             4    7     1       0.4603873614E-02       4    7    1         0.2484758531E+00      0.5358454463E+00
          0                 3           2             4    7     1      -0.3135071144E-03       4    7    1        -0.1739334249E-01      0.3750915508E-01
          0                 4           1             4    7     1       0.1247473990E-04       4    7    1         0.7113885790E-03      0.1534119725E-02

    ------------------------------------------------
       NWT REQUIRED            4 OUTER ITERATIONS 
       AND A TOTAL OF          7 INNER ITERATIONS.
    ------------------------------------------------

 NO OUTPUT CONTROL FOR STRESS PERIOD   19   TIME STEP   23
 
 SOLVING FOR HEAD 
                                                   Max.-Head-Change                         Max.-Flux-Residual
  Residual-Control   Outer-Iter.   Inner-Iter.     Column Row Layer    Maximum-Head-Change  Column Row Layer    Maximum-Flux-Residual          L2-NORM 
          0                 1           2             4    7     1      -0.4684020856E-01       4    7    1        -0.2459202486E+01      0.5305652012E+01
          0                 2           2             4    7     1       0.4556235647E-02       4    7    1         0.2459176058E+00      0.5305619822E+00
          0                 3           2             4    7     1      -0.3102631416E-03       4    7    1        -0.1721426485E-01      0.3713932985E-01
          0                 4           1             4    7     1       0.1234565918E-04       4    7    1         0.7040642993E-03      0.1519000100E-02

    ------------------------------------------------
       NWT REQUIRED            4 OUTER ITERATIONS 
       AND A TOTAL OF          7 INNER ITERATIONS.
    ------------------------------------------------

 NO OUTPUT CONTROL FOR STRESS PERIOD   19   TIME STEP   24
 
 SOLVING FOR HEAD 
                                                   Max.-Head-Change                         Max.-Flux-Residual
  Residual-Control   Outer-Iter.   Inner-Iter.     Column Row Layer    Maximum-Head-Change  Column Row Layer    Maximum-Flux-Residual          L2-NORM 
          0                 1           2             4    7     1      -0.4635349510E-01       4    7    1        -0.2433757861E+01      0.5254374239E+01
          0                 2           2             4    7     1       0.4508892149E-02       4    7    1         0.2433731732E+00      0.5254343206E+00
          0                 3           2             4    7     1      -0.3070392203E-03       4    7    1        -0.1703615419E-01      0.3678038982E-01
          0                 4           1             4    7     1       0.1221737653E-04       4    7    1         0.6967795705E-03      0.1504317272E-02

    ------------------------------------------------
       NWT REQUIRED            4 OUTER ITERATIONS 
       AND A TOTAL OF          7 INNER ITERATIONS.
    ------------------------------------------------

 NO OUTPUT CONTROL FOR STRESS PERIOD   19   TIME STEP   25
 
 SOLVING FOR HEAD 
                                                   Max.-Head-Change                         Max.-Flux-Residual
  Residual-Control   Outer-Iter.   Inner-Iter.     Column Row Layer    Maximum-Head-Change  Column Row Layer    Maximum-Flux-Residual          L2-NORM 
          0                 1           2             4    7     1      -0.4587000300E-01       4    7    1        -0.2408462855E+01      0.5204587020E+01
          0                 2           2             4    7     1       0.4461862030E-02       4    7    1         0.2408437044E+00      0.5204557329E+00
          0                 3           2             4    7     1      -0.3038366388E-03       4    7    1        -0.1685909101E-01      0.3643193965E-01
          0                 4           1             4    7     1       0.1208994248E-04       4    7    1         0.6895376644E-03      0.1490068533E-02

    ------------------------------------------------
       NWT REQUIRED            4 OUTER ITERATIONS 
       AND A TOTAL OF          7 INNER ITERATIONS.
    ------------------------------------------------

 NO OUTPUT CONTROL FOR STRESS PERIOD   19   TIME STEP   26
 
 SOLVING FOR HEAD 
                                                   Max.-Head-Change                         Max.-Flux-Residual
  Residual-Control   Outer-Iter.   Inner-Iter.     Column Row Layer    Maximum-Head-Change  Column Row Layer    Maximum-Flux-Residual          L2-NORM 
          0                 1           2             4    7     1      -0.4539030623E-01       4    7    1        -0.2383349567E+01      0.5156216253E+01
          0                 2           2             4    7     1       0.4415201116E-02       4    7    1         0.2383324091E+00      0.5156187095E+00
          0                 3           2             4    7     1      -0.3006591986E-03       4    7    1        -0.1668329993E-01      0.3609330471E-01
          0                 4           1             4    7     1       0.1196350946E-04       4    7    1         0.6823478011E-03      0.1476213838E-02

    ------------------------------------------------
       NWT REQUIRED            4 OUTER ITERATIONS 
       AND A TOTAL OF          7 INNER ITERATIONS.
    ------------------------------------------------

 NO OUTPUT CONTROL FOR STRESS PERIOD   19   TIME STEP   27
 
 SOLVING FOR HEAD 
                                                   Max.-Head-Change                         Max.-Flux-Residual
  Residual-Control   Outer-Iter.   Inner-Iter.     Column Row Layer    Maximum-Head-Change  Column Row Layer    Maximum-Flux-Residual          L2-NORM 
          0                 1           2             4    7     1      -0.4491439339E-01       4    7    1        -0.2358418400E+01      0.5109202244E+01
          0                 2           2             4    7     1       0.4368908295E-02       4    7    1         0.2358393273E+00      0.5109173990E+00
          0                 3           2             4    7     1      -0.2975068237E-03       4    7    1        -0.1650878380E-01      0.3576421628E-01
          0                 4           1             4    7     1       0.1183807310E-04       4    7    1         0.6752100651E-03      0.1462752607E-02

    ------------------------------------------------
       NWT REQUIRED            4 OUTER ITERATIONS 
       AND A TOTAL OF          7 INNER ITERATIONS.
    ------------------------------------------------

 NO OUTPUT CONTROL FOR STRESS PERIOD   19   TIME STEP   28
 
 SOLVING FOR HEAD 
                                                   Max.-Head-Change                         Max.-Flux-Residual
  Residual-Control   Outer-Iter.   Inner-Iter.     Column Row Layer    Maximum-Head-Change  Column Row Layer    Maximum-Flux-Residual          L2-NORM 
          0                 1           2             4    7     1      -0.4444265638E-01       4    7    1        -0.2333690780E+01      0.5064863391E+01
          0                 2           2             4    7     1       0.4323021687E-02       4    7    1         0.2333666014E+00      0.5064807739E+00
          0                 3           2             4    7     1      -0.2943821109E-03       4    7    1        -0.1633569259E-01      0.3545339747E-01
          0                 4           1             4    7     1       0.1171373783E-04       4    7    1         0.6681306343E-03      0.1450031912E-02

    ------------------------------------------------
       NWT REQUIRED            4 OUTER ITERATIONS 
       AND A TOTAL OF          7 INNER ITERATIONS.
    ------------------------------------------------

 NO OUTPUT CONTROL FOR STRESS PERIOD   19   TIME STEP   29
 
 SOLVING FOR HEAD 
                                                   Max.-Head-Change                         Max.-Flux-Residual
  Residual-Control   Outer-Iter.   Inner-Iter.     Column Row Layer    Maximum-Head-Change  Column Row Layer    Maximum-Flux-Residual          L2-NORM 
          0                 1           2             4    7     1      -0.4397532111E-01       4    7    1        -0.2309179688E+01      0.5022828351E+01
          0                 2           2             4    7     1       0.4277563262E-02       4    7    1         0.2309155293E+00      0.5022708697E+00
          0                 3           2             4    7     1      -0.2912865554E-03       4    7    1        -0.1616411711E-01      0.3515809675E-01
          0                 4           1             4    7     1       0.1159056327E-04       4    7    1         0.6611131998E-03      0.1437913828E-02

    ------------------------------------------------
       NWT REQUIRED            4 OUTER ITERATIONS 
       AND A TOTAL OF          7 INNER ITERATIONS.
    ------------------------------------------------

 NO OUTPUT CONTROL FOR STRESS PERIOD   19   TIME STEP   30



 STREAM LISTING     PERIOD     19   STEP       30

 LAYER ROW COL. STREAM  RCH.  FLOW INTO     FLOW TO   FLOW OUT OF   OVRLND.     DIRECT     STREAM       STREAM     STREAM     STREAM   STREAMBED  STREAMBED
                SEG.NO.  NO.  STRM. RCH.    AQUIFER    STRM. RCH.    RUNOFF     PRECIP       ET          HEAD       DEPTH      WIDTH   CONDCTNC.   GRADIENT

   1    1    1     1     1    4.0501E+01  3.0566E-01   4.0195E+01  0.000E+00  0.000E+00  0.000E+00  1.09438E+03  1.335E+00  1.567E+01  7.051E-02  1.445E+00
   1    2    2     1     2    4.0195E+01  4.7341E-01   3.9722E+01  0.000E+00  0.000E+00  0.000E+00  1.08939E+03  1.332E+00  1.561E+01  1.093E-01  1.444E+00
   1    3    3     1     3    3.9722E+01  4.0378E-01   3.9318E+01  0.000E+00  0.000E+00  0.000E+00  1.08375E+03  1.329E+00  1.555E+01  9.328E-02  1.443E+00
   1    3    4     1     4    3.9318E+01  3.7185E-01   3.8946E+01  0.000E+00  0.000E+00  0.000E+00  1.07873E+03  1.326E+00  1.549E+01  8.596E-02  1.442E+00
   1    4    5     2     1    3.6946E+01  3.5272E-01   3.6593E+01  0.000E+00  0.000E+00  0.000E+00  1.07346E+03  1.522E+00  1.200E+01  7.800E-02  1.507E+00
   1    5    6     2     2    3.6593E+01  2.7086E-01   3.6322E+01  0.000E+00  0.000E+00  0.000E+00  1.06802E+03  1.514E+00  1.200E+01  6.000E-02  1.505E+00
   1    6    6     2     3    3.6322E+01  2.7045E-01   3.6052E+01  0.000E+00  0.000E+00  0.000E+00  1.06330E+03  1.508E+00  1.200E+01  6.000E-02  1.503E+00
   1    7    6     2     4    3.6052E+01  2.7005E-01   3.5782E+01  0.000E+00  0.000E+00  0.000E+00  1.05858E+03  1.501E+00  1.200E+01  6.000E-02  1.500E+00
   1    8    6     2     5    3.5782E+01  2.6964E-01   3.5512E+01  0.000E+00  0.000E+00  0.000E+00  1.05385E+03  1.494E+00  1.200E+01  6.000E-02  1.498E+00
   1    3    5     3     1    2.0000E+00  2.8252E-01   1.7175E+00  0.000E+00  0.000E+00  0.000E+00  1.07555E+03  1.909E+00  9.636E+00  7.227E-02  1.955E+00
   1    3    6     3     2    1.7175E+00  2.4905E-01   1.4684E+00  0.000E+00  0.000E+00  0.000E+00  1.07264E+03  1.727E+00  8.909E+00  6.682E-02  1.864E+00
   1    3    7     3     3    1.4684E+00  1.9718E-01   1.2712E+00  0.000E+00  0.000E+00  0.000E+00  1.06987E+03  1.555E+00  8.218E+00  5.547E-02  1.777E+00
   1    4    8     3     4    1.2712E+00  2.2567E-01   1.0456E+00  0.000E+00  0.000E+00  0.000E+00  1.06682E+03  1.364E+00  7.455E+00  6.709E-02  1.682E+00
   1    5    8     3     5    1.0456E+00  1.5790E-01   8.8768E-01  0.000E+00  0.000E+00  0.000E+00  1.06362E+03  1.164E+00  6.655E+00  4.991E-02  1.582E+00
   1    6    8     3     6    8.8768E-01  5.5980E-02   8.3170E-01  0.000E+00  0.000E+00  0.000E+00  1.06158E+03  1.036E+00  6.145E+00  1.844E-02  1.518E+00
   1    5   10     4     1    1.0000E+01  9.0919E-02   9.9091E+00  0.000E+00  0.000E+00  0.000E+00  1.07836E+03  6.368E-01  1.000E+01  2.500E-02  1.212E+00
   1    5    9     4     2    9.9091E+00  1.8158E-01   9.7275E+00  0.000E+00  0.000E+00  0.000E+00  1.07154E+03  6.315E-01  1.000E+01  5.000E-02  1.211E+00
   1    6    8     4     3    9.7275E+00  1.2689E-01   9.6006E+00  0.000E+00  0.000E+00  0.000E+00  1.06381E+03  6.256E-01  1.000E+01  3.500E-02  1.209E+00
   1    6    8     5     1    1.0432E+01  2.2686E-01   1.0205E+01  0.000E+00  0.000E+00  0.000E+00  1.05868E+03  6.790E-01  1.542E+01  6.166E-02  1.226E+00
   1    7    7     5     2    1.0205E+01  2.7894E-01   9.9265E+00  0.000E+00  0.000E+00  0.000E+00  1.05417E+03  6.732E-01  1.519E+01  7.594E-02  1.224E+00
   1    8    7     5     3    9.9265E+00  1.9221E-01   9.7343E+00  0.000E+00  0.000E+00  0.000E+00  1.04992E+03  6.676E-01  1.497E+01  5.241E-02  1.223E+00
   1    8    6     5     4    9.7343E+00  1.3577E-01   9.5985E+00  0.000E+00  0.000E+00  0.000E+00  1.04691E+03  6.637E-01  1.482E+01  3.706E-02  1.221E+00
   1    9    6     6     1    4.5111E+01  2.8420E-01   4.4827E+01  0.000E+00  0.000E+00  0.000E+00  1.04446E+03  1.737E+00  1.200E+01  6.000E-02  1.579E+00
   1   10    7     6     2    4.4827E+01  2.8380E-01   4.4543E+01  0.000E+00  0.000E+00  0.000E+00  1.03991E+03  1.730E+00  1.200E+01  6.000E-02  1.577E+00
   1   11    7     6     3    4.4543E+01  2.8341E-01   4.4259E+01  0.000E+00  0.000E+00  0.000E+00  1.03536E+03  1.723E+00  1.200E+01  6.000E-02  1.574E+00
   1   12    7     6     4    4.4259E+01  2.8301E-01   4.3976E+01  0.000E+00  0.000E+00  0.000E+00  1.03081E+03  1.717E+00  1.200E+01  6.000E-02  1.572E+00
   1   13    7     6     5    4.3976E+01  1.4139E-02   4.3962E+01  0.000E+00  0.000E+00  0.000E+00  1.02762E+03  1.713E+00  1.200E+01  2.400E-02  1.964E-01
   1   14    9     7     1    1.5000E+02  1.3371E+00   1.4866E+02  0.000E+00  0.000E+00  0.000E+00  1.03987E+03  2.288E+00  5.529E+01  5.593E-01  7.969E-01
   1   13    8     7     2    1.4866E+02  1.8444E+00   1.4682E+02  0.000E+00  0.000E+00  0.000E+00  1.03478E+03  2.279E+00  5.526E+01  6.148E-01  1.000E+00
   1   13    7     7     3    1.4682E+02  1.4834E+00   1.4534E+02  0.000E+00  0.000E+00  0.000E+00  1.02969E+03  2.270E+00  5.522E+01  5.584E-01  8.855E-01
   1   13    6     8     1    1.8930E+02  1.0126E+00   1.8828E+02  0.000E+00  0.000E+00  0.000E+00  1.02495E+03  3.071E+00  4.452E+01  4.537E-01  7.439E-01
   1   13    5     8     2    1.8828E+02  2.3322E-01   1.8805E+02  0.000E+00  0.000E+00  0.000E+00  1.01869E+03  3.067E+00  4.447E+01  4.531E-01  1.716E-01
   1   13    4     8     3    1.8805E+02 -2.3246E+00   1.9038E+02  0.000E+00  0.000E+00  0.000E+00  1.01245E+03  3.073E+00  4.456E+01  4.541E+00 -1.706E-01
   1   13    3     8     4    1.9038E+02 -3.5982E+00   1.9397E+02  0.000E+00  0.000E+00  0.000E+00  1.00622E+03  3.091E+00  4.482E+01  4.567E+00 -2.626E-01
   1   13    2     8     5    1.9397E+02 -2.6072E+00   1.9658E+02  0.000E+00  0.000E+00  0.000E+00  9.99985E+02  3.110E+00  4.509E+01  4.595E+00 -1.891E-01
   1   13    1     8     6    1.9658E+02 -2.0184E+00   1.9860E+02  0.000E+00  0.000E+00  0.000E+00  9.94998E+02  3.123E+00  4.529E+01  2.769E+00 -2.430E-01
   1    8    6     9     1    0.0000E+00  0.0000E+00   0.0000E+00  0.000E+00  0.000E+00  0.000E+00  1.07875E+03  0.000E+00  4.000E+00  0.000E+00  1.000E+00
   1    8    5     9     2    0.0000E+00  0.0000E+00   0.0000E+00  0.000E+00  0.000E+00  0.000E+00  1.07825E+03  0.000E+00  4.000E+00  0.000E+00  1.000E+00





UNSATURATED ZONE PACKAGE VOLUMETRIC BUDGET FOR  TIME STEP    30 STRESS PERIOD   19
  ------------------------------------------------------------------------------



     CUMULATIVE VOLUMES      L**3       RATES FOR THIS TIME STEP      L**3/T
     ------------------                 ------------------------

           IN:                                      IN:
           ---                                      ---
        INFILTRATION =   532609303.7032          INFILTRATION =          23.3175

          OUT:                                     OUT:
          ----                                     ----
              UZF ET =   531863836.1591                UZF ET =          23.3175
        UZF RECHARGE =       73224.0000          UZF RECHARGE =       0.0000E+00

            IN - OUT =      672243.5441              IN - OUT =       0.0000E+00

          STORAGE:                                 STORAGE:
          --------                                 --------
      STORAGE CHANGE =      672243.4909        STORAGE CHANGE =       9.1295E-16

 PERCENT DISCREPANCY IS DIFFERENCE BETWEEN IN-OUT MINUS CHANGE IN STORAGE
 DIVIDED BY THE AVERAGE OF IN AND OUT TIMES 100

 PERCENT DISCREPANCY =           0.00     PERCENT DISCREPANCY =           0.00






1
  VOLUMETRIC BUDGET FOR AGRICULTURAL FIELDS AT  END OF TIME STEP   30, STRESS PERIOD  19
  ------------------------------------------------------------------------------

     CUMULATIVE VOLUMES      L**3       RATES FOR THIS TIME STEP      L**3/T
     ------------------                 ------------------------

           IN:                                      IN:
           ---                                      ---
               AG WELLS  =   492414784.0000                 AG WELLS  =          22.4700
      DIVERSION SEGMENTS =           0.0000        DIVERSION SEGMENTS =           0.0000
       IRRIGATION PONDS  =           0.0000         IRRIGATION PONDS  =           0.0000
           GW IRRIGATION =           0.0000             GW IRRIGATION =           0.0000
           SW IRRIGATION =           0.0000             SW IRRIGATION =           0.0000
        SYSTEM LOSSES GW =           0.0000          SYSTEM LOSSES GW =           0.0000
        SYSTEM LOSSES SW =           0.0000          SYSTEM LOSSES SW =           0.0000

                TOTAL IN =   492414784.0000                  TOTAL IN =          22.4700

          OUT:                                     OUT:
          ----                                     ----
               AG WELLS  =           0.0000                 AG WELLS  =           0.0000
      DIVERSION SEGMENTS =           0.0000        DIVERSION SEGMENTS =           0.0000
       IRRIGATION PONDS  =           0.0000         IRRIGATION PONDS  =           0.0000
           GW IRRIGATION =   492414784.0000             GW IRRIGATION =          22.4700
           SW IRRIGATION =           0.0000             SW IRRIGATION =           0.0000
        SYSTEM LOSSES GW =           0.0000          SYSTEM LOSSES GW =           0.0000
        SYSTEM LOSSES SW =           0.0000          SYSTEM LOSSES SW =           0.0000

               TOTAL OUT =   492414784.0000                 TOTAL OUT =          22.4700

                IN - OUT =           0.0000                  IN - OUT =           0.0000

     PERCENT DISCREPANCY =           0.00         PERCENT DISCREPANCY =           0.00



1
  VOLUMETRIC BUDGET FOR ENTIRE MODEL AT END OF TIME STEP   30, STRESS PERIOD  19
  ------------------------------------------------------------------------------

     CUMULATIVE VOLUMES      L**3       RATES FOR THIS TIME STEP      L**3/T
     ------------------                 ------------------------

           IN:                                      IN:
           ---                                      ---
             STORAGE     =   657343104.0000               STORAGE     =          20.9011
       CONSTANT HEAD     =           0.0000         CONSTANT HEAD     =           0.0000
     HEAD DEP BOUNDS     =    13550580.0000       HEAD DEP BOUNDS     =           0.2858
      STREAM LEAKAGE     =   577732480.0000        STREAM LEAKAGE     =          12.4492
        UZF RECHARGE     =       73223.9531          UZF RECHARGE     =           0.0000
               GW ET     =           0.0000                 GW ET     =           0.0000
     SURFACE LEAKAGE     =           0.0000       SURFACE LEAKAGE     =           0.0000
           AG WELLS      =           0.0000             AG WELLS      =           0.0000

                TOTAL IN =  1248699392.0000                  TOTAL IN =          33.6362

          OUT:                                     OUT:
          ----                                     ----
             STORAGE     =   237940768.0000               STORAGE     =           0.2952
       CONSTANT HEAD     =           0.0000         CONSTANT HEAD     =           0.0000
     HEAD DEP BOUNDS     =    13880680.0000       HEAD DEP BOUNDS     =           0.2936
      STREAM LEAKAGE     =   497166848.0000        STREAM LEAKAGE     =          10.5483
        UZF RECHARGE     =           0.0000          UZF RECHARGE     =           0.0000
               GW ET     =     7296593.5000                 GW ET     =       2.9192E-02
     SURFACE LEAKAGE     =           0.0000       SURFACE LEAKAGE     =           0.0000
           AG WELLS      =   492414784.0000             AG WELLS      =          22.4700

               TOTAL OUT =  1248699648.0000                 TOTAL OUT =          33.6363

                IN - OUT =        -256.0000                  IN - OUT =      -7.2479E-05

     PERCENT DISCREPANCY =          -0.00         PERCENT DISCREPANCY =          -0.00






         TIME SUMMARY AT END OF TIME STEP   30 IN STRESS PERIOD   19
                    SECONDS     MINUTES      HOURS       DAYS        YEARS
                    -----------------------------------------------------------
   TIME STEP LENGTH  87667.      1461.1      24.352      1.0147     2.77799E-03
 STRESS PERIOD TIME 2.63000E+06  43833.      730.56      30.440     8.33397E-02
         TOTAL TIME 4.74265E+07 7.90442E+05  13174.      548.92      1.5029    
1
1
                            STRESS PERIOD NO.   20, LENGTH =   2630000.    
                            -----------------------------------------------

                              NUMBER OF TIME STEPS =    30

                               MULTIPLIER FOR DELT =     1.000

                            INITIAL TIME STEP SIZE =   87666.66    

 REUSING NON-PARAMETER GHB CELLS FROM LAST STRESS PERIOD

      2 GHB CELLS

 REUSING STREAM SEGMENT DATA FROM LAST STRESS PERIOD



            AREAL INFILTRATION RATE
 READING ON UNIT   19 WITH FORMAT: (FREE)              

            1           2           3           4           5           6           7           8           9          10
 ........................................................................................................................
   1   1.0000E-10  2.0000E-10   0.000       0.000       0.000       0.000       0.000       0.000       0.000       0.000    
   2   2.0000E-10  1.0000E-10  2.0000E-10   0.000       0.000      8.0000E-10  8.0000E-10  5.0000E-10   0.000       0.000    
   3    0.000      5.0000E-10  1.0000E-10  1.0000E-10  8.0000E-10  8.0000E-10  5.0000E-10  5.0000E-10   0.000       0.000    
   4   8.0000E-10  5.0000E-10  1.0000E-10  1.0000E-10  1.0000E-10  1.0000E-10  1.0000E-10  1.0000E-10  2.0000E-10   0.000    
   5   8.0000E-10  5.0000E-10  1.0000E-10  1.0000E-10  1.0000E-10  1.0000E-10  1.0000E-10  1.0000E-10  1.0000E-10  1.0000E-10
   6   8.0000E-10  5.0000E-10  5.0000E-10  2.0000E-10  2.0000E-10  1.0000E-10  1.0000E-10  1.0000E-10  1.0000E-10  5.0000E-10
   7   8.0000E-10  5.0000E-10  5.0000E-10  2.0000E-10  2.0000E-10  1.0000E-10  1.0000E-10  2.0000E-10  2.0000E-10   0.000    
   8    0.000      5.0000E-10  5.0000E-10  2.0000E-10  2.0000E-10  1.0000E-10  1.0000E-10  2.0000E-10  5.0000E-10   0.000    
   9    0.000      5.0000E-10  5.0000E-10  2.0000E-10  2.0000E-10  1.0000E-10  1.0000E-10  2.0000E-10  5.0000E-10   0.000    
  10    0.000      5.0000E-10  5.0000E-10  2.0000E-10  2.0000E-10  1.0000E-10  1.0000E-10  2.0000E-10  5.0000E-10  8.0000E-10
  11    0.000      1.0000E-10  1.0000E-10  1.0000E-10  1.0000E-10  1.0000E-10  1.0000E-10  2.0000E-10  5.0000E-10   0.000    
  12   1.0000E-10  1.0000E-10  1.0000E-10  1.0000E-10  1.0000E-10  1.0000E-10  1.0000E-10  1.0000E-10  2.0000E-10   0.000    
  13   1.0000E-10  1.0000E-10  2.0000E-10  2.0000E-10  2.0000E-10  2.0000E-10  2.0000E-10  1.0000E-10  1.0000E-10   0.000    
  14    0.000      2.0000E-10  5.0000E-10  5.0000E-10  5.0000E-10  5.0000E-10  5.0000E-10  2.0000E-10  1.0000E-10   0.000    
  15    0.000       0.000      8.0000E-10  8.0000E-10  8.0000E-10  8.0000E-10   0.000       0.000       0.000       0.000    

                  ET RATE =  4.000000E-07

 USING ET EXTINCTION DEPTH FROM PREVIOUS STRESS PERIOD. CURRENT PERIOD IS:      20

 USING EXTINCTION WATER CONTENT FROM PREVIOUS STRESS PERIOD. CURRENT PERIOD IS:      20

 USING AIR ENTRY PRESSURE FROM PREVIOUS STRESS PERIOD. CURRENT PERIOD IS:      20

 USING ROOT PRESSURE HEAD FROM PREVIOUS STRESS PERIOD. CURRENT PERIOD IS:      20

 USING ROOT ACTIVITY FROM PREVIOUS STRESS PERIOD. CURRENT PERIOD IS:      20

 PROCESSING AG STRESS PERIOD DATA

 READING AG STRESS PERIOD DATA

 READING IRRIGATION SEGMENT

 READING IRRIGATION WELL

 READING SUPPLEMENTAL WELL

 NO IRRPOND OR REUSING IRRPOND DATA FROM LAST STRESS PERIOD

 END PROCESSING AG STRESS PERIOD DATA OPTIONS
 
 SOLVING FOR HEAD 
                                                   Max.-Head-Change                         Max.-Flux-Residual
  Residual-Control   Outer-Iter.   Inner-Iter.     Column Row Layer    Maximum-Head-Change  Column Row Layer    Maximum-Flux-Residual          L2-NORM 
          0                 1           2             4    7     1      -0.1632240608E+00       4    7    1        -0.8534896599E+01      0.1999798842E+02
          0                 2           2             4    7     1       0.1587699780E-01       4    7    1         0.8534728960E+00      0.1999768286E+01
          0                 3           2             4    7     1      -0.1081167159E-02       4    7    1        -0.5974328715E-01      0.1399838563E+00
          0                 4           1             4    7     1       0.4302064120E-04       4    7    1         0.2443503100E-02      0.5725329981E-02

    ------------------------------------------------
       NWT REQUIRED            4 OUTER ITERATIONS 
       AND A TOTAL OF          7 INNER ITERATIONS.
    ------------------------------------------------

 OUTPUT CONTROL FOR STRESS PERIOD   20   TIME STEP    1
    PRINT BUDGET
    SAVE BUDGET
    SAVE BUDGET
    SAVE HEAD FOR ALL LAYERS
 UBDSV1 SAVING "         STORAGE" ON UNIT 102 AT TIME STEP 1, STRESS PERIOD 20
 UBDSV2 SAVING "   CONSTANT HEAD" ON UNIT 102 AT TIME STEP 1, STRESS PERIOD 20
 UBDSV1 SAVING "FLOW RIGHT FACE " ON UNIT 102 AT TIME STEP 1, STRESS PERIOD 20
 UBDSV1 SAVING "FLOW FRONT FACE " ON UNIT 102 AT TIME STEP 1, STRESS PERIOD 20

  HEAD DEP BOUNDS   PERIOD   20   STEP     1
 BOUNDARY      1   LAYER   1   ROW    13   COL     1   RATE   -0.293608    
 BOUNDARY      2   LAYER   1   ROW    14   COL     9   RATE    0.285850    



 STREAM LISTING     PERIOD     20   STEP        1

 LAYER ROW COL. STREAM  RCH.  FLOW INTO     FLOW TO   FLOW OUT OF   OVRLND.     DIRECT     STREAM       STREAM     STREAM     STREAM   STREAMBED  STREAMBED
                SEG.NO.  NO.  STRM. RCH.    AQUIFER    STRM. RCH.    RUNOFF     PRECIP       ET          HEAD       DEPTH      WIDTH   CONDCTNC.   GRADIENT

   1    1    1     1     1    4.0501E+01  3.0566E-01   4.0195E+01  0.000E+00  0.000E+00  0.000E+00  1.09438E+03  1.335E+00  1.567E+01  7.051E-02  1.445E+00
   1    2    2     1     2    4.0195E+01  4.7341E-01   3.9722E+01  0.000E+00  0.000E+00  0.000E+00  1.08939E+03  1.332E+00  1.561E+01  1.093E-01  1.444E+00
   1    3    3     1     3    3.9722E+01  4.0378E-01   3.9318E+01  0.000E+00  0.000E+00  0.000E+00  1.08375E+03  1.329E+00  1.555E+01  9.328E-02  1.443E+00
   1    3    4     1     4    3.9318E+01  3.7185E-01   3.8946E+01  0.000E+00  0.000E+00  0.000E+00  1.07873E+03  1.326E+00  1.549E+01  8.596E-02  1.442E+00
   1    4    5     2     1    3.6946E+01  3.5272E-01   3.6593E+01  0.000E+00  0.000E+00  0.000E+00  1.07346E+03  1.522E+00  1.200E+01  7.800E-02  1.507E+00
   1    5    6     2     2    3.6593E+01  2.7086E-01   3.6322E+01  0.000E+00  0.000E+00  0.000E+00  1.06802E+03  1.514E+00  1.200E+01  6.000E-02  1.505E+00
   1    6    6     2     3    3.6322E+01  2.7045E-01   3.6052E+01  0.000E+00  0.000E+00  0.000E+00  1.06330E+03  1.508E+00  1.200E+01  6.000E-02  1.503E+00
   1    7    6     2     4    3.6052E+01  2.7005E-01   3.5782E+01  0.000E+00  0.000E+00  0.000E+00  1.05858E+03  1.501E+00  1.200E+01  6.000E-02  1.500E+00
   1    8    6     2     5    3.5782E+01  2.6964E-01   3.5512E+01  0.000E+00  0.000E+00  0.000E+00  1.05385E+03  1.494E+00  1.200E+01  6.000E-02  1.498E+00
   1    3    5     3     1    2.0000E+00  2.8252E-01   1.7175E+00  0.000E+00  0.000E+00  0.000E+00  1.07555E+03  1.909E+00  9.636E+00  7.227E-02  1.955E+00
   1    3    6     3     2    1.7175E+00  2.4905E-01   1.4684E+00  0.000E+00  0.000E+00  0.000E+00  1.07264E+03  1.727E+00  8.909E+00  6.682E-02  1.864E+00
   1    3    7     3     3    1.4684E+00  1.9718E-01   1.2712E+00  0.000E+00  0.000E+00  0.000E+00  1.06987E+03  1.555E+00  8.218E+00  5.547E-02  1.777E+00
   1    4    8     3     4    1.2712E+00  2.2567E-01   1.0456E+00  0.000E+00  0.000E+00  0.000E+00  1.06682E+03  1.364E+00  7.455E+00  6.709E-02  1.682E+00
   1    5    8     3     5    1.0456E+00  1.5790E-01   8.8768E-01  0.000E+00  0.000E+00  0.000E+00  1.06362E+03  1.164E+00  6.655E+00  4.991E-02  1.582E+00
   1    6    8     3     6    8.8768E-01  5.5980E-02   8.3170E-01  0.000E+00  0.000E+00  0.000E+00  1.06158E+03  1.036E+00  6.145E+00  1.844E-02  1.518E+00
   1    5   10     4     1    1.0000E+01  9.0919E-02   9.9091E+00  0.000E+00  0.000E+00  0.000E+00  1.07836E+03  6.368E-01  1.000E+01  2.500E-02  1.212E+00
   1    5    9     4     2    9.9091E+00  1.8158E-01   9.7275E+00  0.000E+00  0.000E+00  0.000E+00  1.07154E+03  6.315E-01  1.000E+01  5.000E-02  1.211E+00
   1    6    8     4     3    9.7275E+00  1.2689E-01   9.6006E+00  0.000E+00  0.000E+00  0.000E+00  1.06381E+03  6.256E-01  1.000E+01  3.500E-02  1.209E+00
   1    6    8     5     1    1.0432E+01  2.2686E-01   1.0205E+01  0.000E+00  0.000E+00  0.000E+00  1.05868E+03  6.790E-01  1.542E+01  6.166E-02  1.226E+00
   1    7    7     5     2    1.0205E+01  2.7894E-01   9.9265E+00  0.000E+00  0.000E+00  0.000E+00  1.05417E+03  6.732E-01  1.519E+01  7.594E-02  1.224E+00
   1    8    7     5     3    9.9265E+00  1.9221E-01   9.7343E+00  0.000E+00  0.000E+00  0.000E+00  1.04992E+03  6.676E-01  1.497E+01  5.241E-02  1.223E+00
   1    8    6     5     4    9.7343E+00  1.3577E-01   9.5985E+00  0.000E+00  0.000E+00  0.000E+00  1.04691E+03  6.637E-01  1.482E+01  3.706E-02  1.221E+00
   1    9    6     6     1    4.5111E+01  2.8420E-01   4.4827E+01  0.000E+00  0.000E+00  0.000E+00  1.04446E+03  1.737E+00  1.200E+01  6.000E-02  1.579E+00
   1   10    7     6     2    4.4827E+01  2.8380E-01   4.4543E+01  0.000E+00  0.000E+00  0.000E+00  1.03991E+03  1.730E+00  1.200E+01  6.000E-02  1.577E+00
   1   11    7     6     3    4.4543E+01  2.8341E-01   4.4259E+01  0.000E+00  0.000E+00  0.000E+00  1.03536E+03  1.723E+00  1.200E+01  6.000E-02  1.574E+00
   1   12    7     6     4    4.4259E+01  2.8301E-01   4.3976E+01  0.000E+00  0.000E+00  0.000E+00  1.03081E+03  1.717E+00  1.200E+01  6.000E-02  1.572E+00
   1   13    7     6     5    4.3976E+01  1.4149E-02   4.3962E+01  0.000E+00  0.000E+00  0.000E+00  1.02762E+03  1.713E+00  1.200E+01  2.400E-02  1.965E-01
   1   14    9     7     1    1.5000E+02  1.3372E+00   1.4866E+02  0.000E+00  0.000E+00  0.000E+00  1.03987E+03  2.288E+00  5.529E+01  5.593E-01  7.969E-01
   1   13    8     7     2    1.4866E+02  1.8445E+00   1.4682E+02  0.000E+00  0.000E+00  0.000E+00  1.03478E+03  2.279E+00  5.526E+01  6.148E-01  1.000E+00
   1   13    7     7     3    1.4682E+02  1.4837E+00   1.4533E+02  0.000E+00  0.000E+00  0.000E+00  1.02969E+03  2.270E+00  5.522E+01  5.584E-01  8.856E-01
   1   13    6     8     1    1.8930E+02  1.0129E+00   1.8828E+02  0.000E+00  0.000E+00  0.000E+00  1.02495E+03  3.071E+00  4.452E+01  4.537E-01  7.442E-01
   1   13    5     8     2    1.8828E+02  2.3350E-01   1.8805E+02  0.000E+00  0.000E+00  0.000E+00  1.01869E+03  3.067E+00  4.447E+01  4.531E-01  1.718E-01
   1   13    4     8     3    1.8805E+02 -2.3198E+00   1.9037E+02  0.000E+00  0.000E+00  0.000E+00  1.01245E+03  3.073E+00  4.456E+01  4.541E+00 -1.703E-01
   1   13    3     8     4    1.9037E+02 -3.5931E+00   1.9396E+02  0.000E+00  0.000E+00  0.000E+00  1.00622E+03  3.091E+00  4.482E+01  4.567E+00 -2.622E-01
   1   13    2     8     5    1.9396E+02 -2.6027E+00   1.9657E+02  0.000E+00  0.000E+00  0.000E+00  9.99985E+02  3.110E+00  4.509E+01  4.595E+00 -1.888E-01
   1   13    1     8     6    1.9657E+02 -2.0163E+00   1.9858E+02  0.000E+00  0.000E+00  0.000E+00  9.94998E+02  3.123E+00  4.529E+01  2.769E+00 -2.427E-01
   1    8    6     9     1    0.0000E+00  0.0000E+00   0.0000E+00  0.000E+00  0.000E+00  0.000E+00  1.07875E+03  0.000E+00  4.000E+00  0.000E+00  1.000E+00
   1    8    5     9     2    0.0000E+00  0.0000E+00   0.0000E+00  0.000E+00  0.000E+00  0.000E+00  1.07825E+03  0.000E+00  4.000E+00  0.000E+00  1.000E+00



 UBDSV3 SAVING "           GW ET" ON UNIT  61 AT TIME STEP 1, STRESS PERIOD 20
 UBDSV3 SAVING "    UZF RECHARGE" ON UNIT  61 AT TIME STEP 1, STRESS PERIOD 20
 UBDSV3 SAVING " SURFACE LEAKAGE" ON UNIT  61 AT TIME STEP 1, STRESS PERIOD 20
 UBDSV3 SAVING "       HORT+DUNN" ON UNIT  61 AT TIME STEP 1, STRESS PERIOD 20
 UBDSV3 SAVING "  STORAGE CHANGE" ON UNIT  61 AT TIME STEP 1, STRESS PERIOD 20


UNSATURATED ZONE PACKAGE VOLUMETRIC BUDGET FOR  TIME STEP     1 STRESS PERIOD   20
  ------------------------------------------------------------------------------



     CUMULATIVE VOLUMES      L**3       RATES FOR THIS TIME STEP      L**3/T
     ------------------                 ------------------------

           IN:                                      IN:
           ---                                      ---
        INFILTRATION =   537940970.9491          INFILTRATION =          60.8175

          OUT:                                     OUT:
          ----                                     ----
              UZF ET =   537195503.4050                UZF ET =          60.8175
        UZF RECHARGE =       73224.0000          UZF RECHARGE =       0.0000E+00

            IN - OUT =      672243.5441              IN - OUT =       0.0000E+00

          STORAGE:                                 STORAGE:
          --------                                 --------
      STORAGE CHANGE =      672243.4909        STORAGE CHANGE =      -9.1295E-16

 PERCENT DISCREPANCY IS DIFFERENCE BETWEEN IN-OUT MINUS CHANGE IN STORAGE
 DIVIDED BY THE AVERAGE OF IN AND OUT TIMES 100

 PERCENT DISCREPANCY =           0.00     PERCENT DISCREPANCY =           0.00






 

            AG WELLS      PERIOD   20   STEP   1
 AG WELL      1   LAYER   1   ROW     6   COL     4   RATE    -9.99500    
 AG WELL      2   LAYER   1   ROW     6   COL     5   RATE    -9.99500    
 AG WELL      3   LAYER   1   ROW     7   COL     4   RATE    -9.99500    
 AG WELL      4   LAYER   1   ROW     7   COL     5   RATE    -9.99500    
 AG WELL      5   LAYER   1   ROW     8   COL     4   RATE    -9.99500    
 AG WELL      6   LAYER   1   ROW     8   COL     5   RATE    -9.99500    
 
 

   DIVERSION SEGMENTS     PERIOD   20   STEP   1
 SEGMENT      9   RATE     0.00000    
 
 

        SW IRRIGATION     PERIOD   20   STEP   1
 SEGMENT      9   ROW     6   COL     4   RATE     0.00000    
 SEGMENT      9   ROW     6   COL     5   RATE     0.00000    
 SEGMENT      9   ROW     7   COL     4   RATE     0.00000    
 SEGMENT      9   ROW     7   COL     5   RATE     0.00000    
 SEGMENT      9   ROW     8   COL     4   RATE     0.00000    
 SEGMENT      9   ROW     8   COL     5   RATE     0.00000    
 
 

        GW IRRIGATION     PERIOD   20   STEP   1
 AG WELL      1   ROW     6   COL     4   RATE     9.99500    
 AG WELL      2   ROW     6   COL     5   RATE     9.99500    
 AG WELL      3   ROW     7   COL     4   RATE     9.99500    
 AG WELL      4   ROW     7   COL     5   RATE     9.99500    
 AG WELL      5   ROW     8   COL     4   RATE     9.99500    
 AG WELL      6   ROW     8   COL     5   RATE     9.99500    
 
1
  VOLUMETRIC BUDGET FOR AGRICULTURAL FIELDS AT  END OF TIME STEP    1, STRESS PERIOD  20
  ------------------------------------------------------------------------------

     CUMULATIVE VOLUMES      L**3       RATES FOR THIS TIME STEP      L**3/T
     ------------------                 ------------------------

           IN:                                      IN:
           ---                                      ---
               AG WELLS  =   497672160.0000                 AG WELLS  =          59.9700
      DIVERSION SEGMENTS =           0.0000        DIVERSION SEGMENTS =           0.0000
       IRRIGATION PONDS  =           0.0000         IRRIGATION PONDS  =           0.0000
           GW IRRIGATION =           0.0000             GW IRRIGATION =           0.0000
           SW IRRIGATION =           0.0000             SW IRRIGATION =           0.0000
        SYSTEM LOSSES GW =           0.0000          SYSTEM LOSSES GW =           0.0000
        SYSTEM LOSSES SW =           0.0000          SYSTEM LOSSES SW =           0.0000

                TOTAL IN =   497672160.0000                  TOTAL IN =          59.9700

          OUT:                                     OUT:
          ----                                     ----
               AG WELLS  =           0.0000                 AG WELLS  =           0.0000
      DIVERSION SEGMENTS =           0.0000        DIVERSION SEGMENTS =           0.0000
       IRRIGATION PONDS  =           0.0000         IRRIGATION PONDS  =           0.0000
           GW IRRIGATION =   497672160.0000             GW IRRIGATION =          59.9700
           SW IRRIGATION =           0.0000             SW IRRIGATION =           0.0000
        SYSTEM LOSSES GW =           0.0000          SYSTEM LOSSES GW =           0.0000
        SYSTEM LOSSES SW =           0.0000          SYSTEM LOSSES SW =           0.0000

               TOTAL OUT =   497672160.0000                 TOTAL OUT =          59.9700

                IN - OUT =           0.0000                  IN - OUT =           0.0000

     PERCENT DISCREPANCY =           0.00         PERCENT DISCREPANCY =           0.00




 HEAD WILL BE SAVED ON UNIT   62 AT END OF TIME STEP    1, STRESS PERIOD   20
1
  VOLUMETRIC BUDGET FOR ENTIRE MODEL AT END OF TIME STEP    1, STRESS PERIOD  20
  ------------------------------------------------------------------------------

     CUMULATIVE VOLUMES      L**3       RATES FOR THIS TIME STEP      L**3/T
     ------------------                 ------------------------

           IN:                                      IN:
           ---                                      ---
             STORAGE     =   662463616.0000               STORAGE     =          58.4088
       CONSTANT HEAD     =           0.0000         CONSTANT HEAD     =           0.0000
     HEAD DEP BOUNDS     =    13575640.0000       HEAD DEP BOUNDS     =           0.2859
      STREAM LEAKAGE     =   578823936.0000        STREAM LEAKAGE     =          12.4502
        UZF RECHARGE     =       73223.9531          UZF RECHARGE     =           0.0000
               GW ET     =           0.0000                 GW ET     =           0.0000
     SURFACE LEAKAGE     =           0.0000       SURFACE LEAKAGE     =           0.0000
           AG WELLS      =           0.0000             AG WELLS      =           0.0000

                TOTAL IN =  1254936320.0000                  TOTAL IN =          71.1449

          OUT:                                     OUT:
          ----                                     ----
             STORAGE     =   237966608.0000               STORAGE     =           0.2948
       CONSTANT HEAD     =           0.0000         CONSTANT HEAD     =           0.0000
     HEAD DEP BOUNDS     =    13906420.0000       HEAD DEP BOUNDS     =           0.2936
      STREAM LEAKAGE     =   498090144.0000        STREAM LEAKAGE     =          10.5318
        UZF RECHARGE     =           0.0000          UZF RECHARGE     =           0.0000
               GW ET     =     7301398.0000                 GW ET     =       5.4806E-02
     SURFACE LEAKAGE     =           0.0000       SURFACE LEAKAGE     =           0.0000
           AG WELLS      =   497672160.0000             AG WELLS      =          59.9700

               TOTAL OUT =  1254936704.0000                 TOTAL OUT =          71.1451

                IN - OUT =        -384.0000                  IN - OUT =      -2.0599E-04

     PERCENT DISCREPANCY =          -0.00         PERCENT DISCREPANCY =          -0.00






         TIME SUMMARY AT END OF TIME STEP    1 IN STRESS PERIOD   20
                    SECONDS     MINUTES      HOURS       DAYS        YEARS
                    -----------------------------------------------------------
   TIME STEP LENGTH  87667.      1461.1      24.352      1.0147     2.77799E-03
 STRESS PERIOD TIME  87667.      1461.1      24.352      1.0147     2.77799E-03
         TOTAL TIME 4.75142E+07 7.91903E+05  13198.      549.93      1.5056    
1
 
 SOLVING FOR HEAD 
                                                   Max.-Head-Change                         Max.-Flux-Residual
  Residual-Control   Outer-Iter.   Inner-Iter.     Column Row Layer    Maximum-Head-Change  Column Row Layer    Maximum-Flux-Residual          L2-NORM 
          0                 1           2             4    7     1      -0.1621367603E+00       4    7    1        -0.8480894978E+01      0.1968697304E+02
          0                 2           2             4    7     1       0.1577121703E-01       4    7    1         0.8480716432E+00      0.1968667137E+01
          0                 3           2             4    7     1      -0.1073964037E-02       4    7    1        -0.5936520960E-01      0.1378068367E+00
          0                 4           1             4    7     1       0.4273402172E-04       4    7    1         0.2428039660E-02      0.5636295327E-02

    ------------------------------------------------
       NWT REQUIRED            4 OUTER ITERATIONS 
       AND A TOTAL OF          7 INNER ITERATIONS.
    ------------------------------------------------

 NO OUTPUT CONTROL FOR STRESS PERIOD   20   TIME STEP    2
 
 SOLVING FOR HEAD 
                                                   Max.-Head-Change                         Max.-Flux-Residual
  Residual-Control   Outer-Iter.   Inner-Iter.     Column Row Layer    Maximum-Head-Change  Column Row Layer    Maximum-Flux-Residual          L2-NORM 
          0                 1           2             4    7     1      -0.1610061146E+00       4    7    1        -0.8424396550E+01      0.1939055746E+02
          0                 2           2             4    7     1       0.1566122190E-01       4    7    1         0.8424208405E+00      0.1939025855E+01
          0                 3           2             4    7     1      -0.1066473915E-02       4    7    1        -0.5896966231E-01      0.1357319887E+00
          0                 4           1             4    7     1       0.4243598226E-04       4    7    1         0.2411861729E-02      0.5551438105E-02

    ------------------------------------------------
       NWT REQUIRED            4 OUTER ITERATIONS 
       AND A TOTAL OF          7 INNER ITERATIONS.
    ------------------------------------------------

 NO OUTPUT CONTROL FOR STRESS PERIOD   20   TIME STEP    3
 
 SOLVING FOR HEAD 
                                                   Max.-Head-Change                         Max.-Flux-Residual
  Residual-Control   Outer-Iter.   Inner-Iter.     Column Row Layer    Maximum-Head-Change  Column Row Layer    Maximum-Flux-Residual          L2-NORM 
          0                 1           2             4    7     1      -0.1598365272E+00       4    7    1        -0.8365643396E+01      0.1910764877E+02
          0                 2           2             4    7     1       0.1554744061E-01       4    7    1         0.8365446864E+00      0.1910735244E+01
          0                 3           2             4    7     1      -0.1058725952E-02       4    7    1        -0.5855833930E-01      0.1337516787E+00
          0                 4           1             4    7     1       0.4212768298E-04       4    7    1         0.2395038553E-02      0.5470445156E-02

    ------------------------------------------------
       NWT REQUIRED            4 OUTER ITERATIONS 
       AND A TOTAL OF          7 INNER ITERATIONS.
    ------------------------------------------------

 NO OUTPUT CONTROL FOR STRESS PERIOD   20   TIME STEP    4
 
 SOLVING FOR HEAD 
                                                   Max.-Head-Change                         Max.-Flux-Residual
  Residual-Control   Outer-Iter.   Inner-Iter.     Column Row Layer    Maximum-Head-Change  Column Row Layer    Maximum-Flux-Residual          L2-NORM 
          0                 1           2             4    7     1      -0.1586321368E+00       4    7    1        -0.8304863843E+01      0.1883725928E+02
          0                 2           2             4    7     1       0.1543027562E-01       4    7    1         0.8304660048E+00      0.1883696541E+01
          0                 3           2             4    7     1      -0.1050747554E-02       4    7    1        -0.5813283827E-01      0.1318589878E+00
          0                 4           1             4    7     1       0.4181021483E-04       4    7    1         0.2377635501E-02      0.5393031657E-02

    ------------------------------------------------
       NWT REQUIRED            4 OUTER ITERATIONS 
       AND A TOTAL OF          7 INNER ITERATIONS.
    ------------------------------------------------

 NO OUTPUT CONTROL FOR STRESS PERIOD   20   TIME STEP    5
 
 SOLVING FOR HEAD 
                                                   Max.-Head-Change                         Max.-Flux-Residual
  Residual-Control   Outer-Iter.   Inner-Iter.     Column Row Layer    Maximum-Head-Change  Column Row Layer    Maximum-Flux-Residual          L2-NORM 
          0                 1           2             4    7     1      -0.1573971020E+00       4    7    1        -0.8242287152E+01      0.1857850682E+02
          0                 2           2             4    7     1       0.1531013131E-01       4    7    1         0.8242077129E+00      0.1857821565E+01
          0                 3           2             4    7     1      -0.1042566261E-02       4    7    1        -0.5769476353E-01      0.1300477538E+00
          0                 4           1             4    7     1       0.4148467289E-04       4    7    1         0.2359718193E-02      0.5318954613E-02

    ------------------------------------------------
       NWT REQUIRED            4 OUTER ITERATIONS 
       AND A TOTAL OF          7 INNER ITERATIONS.
    ------------------------------------------------

 NO OUTPUT CONTROL FOR STRESS PERIOD   20   TIME STEP    6
 
 SOLVING FOR HEAD 
                                                   Max.-Head-Change                         Max.-Flux-Residual
  Residual-Control   Outer-Iter.   Inner-Iter.     Column Row Layer    Maximum-Head-Change  Column Row Layer    Maximum-Flux-Residual          L2-NORM 
          0                 1           2             4    7     1      -0.1561350543E+00       4    7    1        -0.8178114299E+01      0.1833058511E+02
          0                 2           2             4    7     1       0.1518736079E-01       4    7    1         0.8177899003E+00      0.1833029692E+01
          0                 3           2             4    7     1      -0.1034206119E-02       4    7    1        -0.5724552144E-01      0.1283123374E+00
          0                 4           1             4    7     1       0.4115201445E-04       4    7    1         0.2341344134E-02      0.5247975427E-02

    ------------------------------------------------
       NWT REQUIRED            4 OUTER ITERATIONS 
       AND A TOTAL OF          7 INNER ITERATIONS.
    ------------------------------------------------

 NO OUTPUT CONTROL FOR STRESS PERIOD   20   TIME STEP    7
 
 SOLVING FOR HEAD 
                                                   Max.-Head-Change                         Max.-Flux-Residual
  Residual-Control   Outer-Iter.   Inner-Iter.     Column Row Layer    Maximum-Head-Change  Column Row Layer    Maximum-Flux-Residual          L2-NORM 
          0                 1           2             4    7     1      -0.1548492528E+00       4    7    1        -0.8112526265E+01      0.1809275239E+02
          0                 2           2             4    7     1       0.1506228087E-01       4    7    1         0.8112306576E+00      0.1809240946E+01
          0                 3           2             4    7     1      -0.1025688703E-02       4    7    1        -0.5678637843E-01      0.1266471276E+00
          0                 4           1             4    7     1       0.4081309848E-04       4    7    1         0.2322565153E-02      0.5179869163E-02

    ------------------------------------------------
       NWT REQUIRED            4 OUTER ITERATIONS 
       AND A TOTAL OF          7 INNER ITERATIONS.
    ------------------------------------------------

 NO OUTPUT CONTROL FOR STRESS PERIOD   20   TIME STEP    8
 
 SOLVING FOR HEAD 
                                                   Max.-Head-Change                         Max.-Flux-Residual
  Residual-Control   Outer-Iter.   Inner-Iter.     Column Row Layer    Maximum-Head-Change  Column Row Layer    Maximum-Flux-Residual          L2-NORM 
          0                 1           2             4    7     1      -0.1535432915E+00       4    7    1        -0.8045721327E+01      0.1786436340E+02
          0                 2           2             4    7     1       0.1493524138E-01       4    7    1         0.8045498053E+00      0.1786408199E+01
          0                 3           2             4    7     1      -0.1017037835E-02       4    7    1        -0.5631872196E-01      0.1250488385E+00
          0                 4           1             4    7     1       0.4046887225E-04       4    7    1         0.2303437953E-02      0.5114502469E-02

    ------------------------------------------------
       NWT REQUIRED            4 OUTER ITERATIONS 
       AND A TOTAL OF          7 INNER ITERATIONS.
    ------------------------------------------------

 NO OUTPUT CONTROL FOR STRESS PERIOD   20   TIME STEP    9
 
 SOLVING FOR HEAD 
                                                   Max.-Head-Change                         Max.-Flux-Residual
  Residual-Control   Outer-Iter.   Inner-Iter.     Column Row Layer    Maximum-Head-Change  Column Row Layer    Maximum-Flux-Residual          L2-NORM 
          0                 1           2             4    7     1      -0.1522198472E+00       4    7    1        -0.7977849236E+01      0.1764482345E+02
          0                 2           2             4    7     1       0.1480650224E-01       4    7    1         0.7977623116E+00      0.1764454556E+01
          0                 3           2             4    7     1      -0.1008271217E-02       4    7    1        -0.5584359987E-01      0.1235121242E+00
          0                 4           1             4    7     1       0.4012004011E-04       4    7    1         0.2284005433E-02      0.5051646461E-02

    ------------------------------------------------
       NWT REQUIRED            4 OUTER ITERATIONS 
       AND A TOTAL OF          7 INNER ITERATIONS.
    ------------------------------------------------

 NO OUTPUT CONTROL FOR STRESS PERIOD   20   TIME STEP   10
 
 SOLVING FOR HEAD 
                                                   Max.-Head-Change                         Max.-Flux-Residual
  Residual-Control   Outer-Iter.   Inner-Iter.     Column Row Layer    Maximum-Head-Change  Column Row Layer    Maximum-Flux-Residual          L2-NORM 
          0                 1           2             4    7     1      -0.1508822191E+00       4    7    1        -0.7909092691E+01      0.1743357190E+02
          0                 2           2             4    7     1       0.1467638441E-01       4    7    1         0.7908864403E+00      0.1743330026E+01
          0                 3           2             4    7     1      -0.9994107052E-03       4    7    1        -0.5536229073E-01      0.1220333980E+00
          0                 4           1             4    7     1       0.3976747174E-04       4    7    1         0.2264319846E-02      0.4991170394E-02

    ------------------------------------------------
       NWT REQUIRED            4 OUTER ITERATIONS 
       AND A TOTAL OF          7 INNER ITERATIONS.
    ------------------------------------------------

 NO OUTPUT CONTROL FOR STRESS PERIOD   20   TIME STEP   11
 
 SOLVING FOR HEAD 
                                                   Max.-Head-Change                         Max.-Flux-Residual
  Residual-Control   Outer-Iter.   Inner-Iter.     Column Row Layer    Maximum-Head-Change  Column Row Layer    Maximum-Flux-Residual          L2-NORM 
          0                 1           2             4    7     1      -0.1495326783E+00       4    7    1        -0.7839578883E+01      0.1723007856E+02
          0                 2           2             4    7     1       0.1454510870E-01       4    7    1         0.7839349044E+00      0.1722980885E+01
          0                 3           2             4    7     1      -0.9904713374E-03       4    7    1        -0.5487568447E-01      0.1206089296E+00
          0                 4           1             4    7     1       0.3941176567E-04       4    7    1         0.2244417600E-02      0.4932908321E-02

    ------------------------------------------------
       NWT REQUIRED            4 OUTER ITERATIONS 
       AND A TOTAL OF          7 INNER ITERATIONS.
    ------------------------------------------------

 NO OUTPUT CONTROL FOR STRESS PERIOD   20   TIME STEP   12
 
 SOLVING FOR HEAD 
                                                   Max.-Head-Change                         Max.-Flux-Residual
  Residual-Control   Outer-Iter.   Inner-Iter.     Column Row Layer    Maximum-Head-Change  Column Row Layer    Maximum-Flux-Residual          L2-NORM 
          0                 1           2             4    7     1      -0.1481738626E+00       4    7    1        -0.7769454809E+01      0.1703388453E+02
          0                 2           2             4    7     1       0.1441293164E-01       4    7    1         0.7769223982E+00      0.1703361900E+01
          0                 3           2             4    7     1      -0.9814705831E-03       4    7    1        -0.5438480976E-01      0.1192356000E+00
          0                 4           1             4    7     1       0.3905361787E-04       4    7    1         0.2224340817E-02      0.4876740766E-02

    ------------------------------------------------
       NWT REQUIRED            4 OUTER ITERATIONS 
       AND A TOTAL OF          7 INNER ITERATIONS.
    ------------------------------------------------

 NO OUTPUT CONTROL FOR STRESS PERIOD   20   TIME STEP   13
 
 SOLVING FOR HEAD 
                                                   Max.-Head-Change                         Max.-Flux-Residual
  Residual-Control   Outer-Iter.   Inner-Iter.     Column Row Layer    Maximum-Head-Change  Column Row Layer    Maximum-Flux-Residual          L2-NORM 
          0                 1           2             4    7     1      -0.1468080900E+00       4    7    1        -0.7698849940E+01      0.1684456474E+02
          0                 2           2             4    7     1       0.1428007860E-01       4    7    1         0.7698618636E+00      0.1684430358E+01
          0                 3           2             4    7     1      -0.9724237894E-03       4    7    1        -0.5389057257E-01      0.1179103904E+00
          0                 4           1             4    7     1       0.3869363723E-04       4    7    1         0.2204126478E-02      0.4822538424E-02

    ------------------------------------------------
       NWT REQUIRED            4 OUTER ITERATIONS 
       AND A TOTAL OF          7 INNER ITERATIONS.
    ------------------------------------------------

 NO OUTPUT CONTROL FOR STRESS PERIOD   20   TIME STEP   14
 
 SOLVING FOR HEAD 
                                                   Max.-Head-Change                         Max.-Flux-Residual
  Residual-Control   Outer-Iter.   Inner-Iter.     Column Row Layer    Maximum-Head-Change  Column Row Layer    Maximum-Flux-Residual          L2-NORM 
          0                 1           2             4    7     1      -0.1454375035E+00       4    7    1        -0.7627884456E+01      0.1666171879E+02
          0                 2           2             4    7     1       0.1414675799E-01       4    7    1         0.7627653136E+00      0.1666146206E+01
          0                 3           2             4    7     1      -0.9633451494E-03       4    7    1        -0.5339381388E-01      0.1166304981E+00
          0                 4           1             4    7     1       0.3833238950E-04       4    7    1         0.2183809009E-02      0.4770192315E-02

    ------------------------------------------------
       NWT REQUIRED            4 OUTER ITERATIONS 
       AND A TOTAL OF          7 INNER ITERATIONS.
    ------------------------------------------------

 NO OUTPUT CONTROL FOR STRESS PERIOD   20   TIME STEP   15
 
 SOLVING FOR HEAD 
                                                   Max.-Head-Change                         Max.-Flux-Residual
  Residual-Control   Outer-Iter.   Inner-Iter.     Column Row Layer    Maximum-Head-Change  Column Row Layer    Maximum-Flux-Residual          L2-NORM 
          0                 1           2             4    7     1      -0.1440639561E+00       4    7    1        -0.7556662183E+01      0.1648498262E+02
          0                 2           2             4    7     1       0.1401314998E-01       4    7    1         0.7556431268E+00      0.1648473027E+01
          0                 3           2             4    7     1      -0.9542469319E-03       4    7    1        -0.5289526019E-01      0.1153933581E+00
          0                 4           1             4    7     1       0.3797036305E-04       4    7    1         0.2163418139E-02      0.4719592112E-02

    ------------------------------------------------
       NWT REQUIRED            4 OUTER ITERATIONS 
       AND A TOTAL OF          7 INNER ITERATIONS.
    ------------------------------------------------

 NO OUTPUT CONTROL FOR STRESS PERIOD   20   TIME STEP   16
 
 SOLVING FOR HEAD 
                                                   Max.-Head-Change                         Max.-Flux-Residual
  Residual-Control   Outer-Iter.   Inner-Iter.     Column Row Layer    Maximum-Head-Change  Column Row Layer    Maximum-Flux-Residual          L2-NORM 
          0                 1           2             4    7     1      -0.1426894175E+00       4    7    1        -0.7485293792E+01      0.1631403137E+02
          0                 2           2             4    7     1       0.1387944610E-01       4    7    1         0.7485063657E+00      0.1631378381E+01
          0                 3           2             4    7     1      -0.9451421814E-03       4    7    1        -0.5239568597E-01      0.1141967470E+00
          0                 4           1             4    7     1       0.3760807629E-04       4    7    1         0.2142985532E-02      0.4670652756E-02

    ------------------------------------------------
       NWT REQUIRED            4 OUTER ITERATIONS 
       AND A TOTAL OF          7 INNER ITERATIONS.
    ------------------------------------------------

 NO OUTPUT CONTROL FOR STRESS PERIOD   20   TIME STEP   17
 
 SOLVING FOR HEAD 
                                                   Max.-Head-Change                         Max.-Flux-Residual
  Residual-Control   Outer-Iter.   Inner-Iter.     Column Row Layer    Maximum-Head-Change  Column Row Layer    Maximum-Flux-Residual          L2-NORM 
          0                 1           2             4    7     1      -0.1413154421E+00       4    7    1        -0.7413866822E+01      0.1614854433E+02
          0                 2           2             4    7     1       0.1374579751E-01       4    7    1         0.7413637809E+00      0.1614830138E+01
          0                 3           2             4    7     1      -0.9360411910E-03       4    7    1        -0.5189570375E-01      0.1130383655E+00
          0                 4           1             4    7     1       0.3724593966E-04       4    7    1         0.2122536229E-02      0.4623273077E-02

    ------------------------------------------------
       NWT REQUIRED            4 OUTER ITERATIONS 
       AND A TOTAL OF          7 INNER ITERATIONS.
    ------------------------------------------------

 NO OUTPUT CONTROL FOR STRESS PERIOD   20   TIME STEP   18
 
 SOLVING FOR HEAD 
                                                   Max.-Head-Change                         Max.-Flux-Residual
  Residual-Control   Outer-Iter.   Inner-Iter.     Column Row Layer    Maximum-Head-Change  Column Row Layer    Maximum-Flux-Residual          L2-NORM 
          0                 1           2             4    7     1      -0.1399437190E+00       4    7    1        -0.7342476464E+01      0.1598824476E+02
          0                 2           2             4    7     1       0.1361236845E-01       4    7    1         0.7342248873E+00      0.1598800662E+01
          0                 3           2             4    7     1      -0.9269551452E-03       4    7    1        -0.5139597966E-01      0.1119163166E+00
          0                 4           1             4    7     1       0.3688439767E-04       4    7    1         0.2102097506E-02      0.4577383497E-02

    ------------------------------------------------
       NWT REQUIRED            4 OUTER ITERATIONS 
       AND A TOTAL OF          7 INNER ITERATIONS.
    ------------------------------------------------

 NO OUTPUT CONTROL FOR STRESS PERIOD   20   TIME STEP   19
 
 SOLVING FOR HEAD 
                                                   Max.-Head-Change                         Max.-Flux-Residual
  Residual-Control   Outer-Iter.   Inner-Iter.     Column Row Layer    Maximum-Head-Change  Column Row Layer    Maximum-Flux-Residual          L2-NORM 
          0                 1           2             4    7     1      -0.1385755362E+00       4    7    1        -0.7271195700E+01      0.1583285992E+02
          0                 2           2             4    7     1       0.1347928416E-01       4    7    1         0.7270969805E+00      0.1583262625E+01
          0                 3           2             4    7     1      -0.9178925733E-03       4    7    1        -0.5089702434E-01      0.1108286332E+00
          0                 4           1             4    7     1       0.3652378970E-04       4    7    1         0.2081690209E-02      0.4532893638E-02

    ------------------------------------------------
       NWT REQUIRED            4 OUTER ITERATIONS 
       AND A TOTAL OF          7 INNER ITERATIONS.
    ------------------------------------------------

 NO OUTPUT CONTROL FOR STRESS PERIOD   20   TIME STEP   20
 
 SOLVING FOR HEAD 
                                                   Max.-Head-Change                         Max.-Flux-Residual
  Residual-Control   Outer-Iter.   Inner-Iter.     Column Row Layer    Maximum-Head-Change  Column Row Layer    Maximum-Flux-Residual          L2-NORM 
          0                 1           2             4    7     1      -0.1372123395E+00       4    7    1        -0.7200105908E+01      0.1568214791E+02
          0                 2           2             4    7     1       0.1334668524E-01       4    7    1         0.7199881950E+00      0.1568191886E+01
          0                 3           2             4    7     1      -0.9088630489E-03       4    7    1        -0.5039940731E-01      0.1097736788E+00
          0                 4           1             4    7     1       0.3616449626E-04       4    7    1         0.2061337642E-02      0.4489748208E-02

    ------------------------------------------------
       NWT REQUIRED            4 OUTER ITERATIONS 
       AND A TOTAL OF          7 INNER ITERATIONS.
    ------------------------------------------------

 NO OUTPUT CONTROL FOR STRESS PERIOD   20   TIME STEP   21
 
 SOLVING FOR HEAD 
                                                   Max.-Head-Change                         Max.-Flux-Residual
  Residual-Control   Outer-Iter.   Inner-Iter.     Column Row Layer    Maximum-Head-Change  Column Row Layer    Maximum-Flux-Residual          L2-NORM 
          0                 1           2             4    7     1      -0.1358553167E+00       4    7    1        -0.7129274750E+01      0.1553588537E+02
          0                 2           2             4    7     1       0.1321468717E-01       4    7    1         0.7129052941E+00      0.1553566091E+01
          0                 3           2             4    7     1      -0.8998744383E-03       4    7    1        -0.4990360200E-01      0.1087498686E+00
          0                 4           1             4    7     1       0.3580683119E-04       4    7    1         0.2041059179E-02      0.4447874372E-02

    ------------------------------------------------
       NWT REQUIRED            4 OUTER ITERATIONS 
       AND A TOTAL OF          7 INNER ITERATIONS.
    ------------------------------------------------

 NO OUTPUT CONTROL FOR STRESS PERIOD   20   TIME STEP   22
 
 SOLVING FOR HEAD 
                                                   Max.-Head-Change                         Max.-Flux-Residual
  Residual-Control   Outer-Iter.   Inner-Iter.     Column Row Layer    Maximum-Head-Change  Column Row Layer    Maximum-Flux-Residual          L2-NORM 
          0                 1           2             4    7     1      -0.1345055495E+00       4    7    1        -0.7058763819E+01      0.1539385260E+02
          0                 2           2             4    7     1       0.1308339516E-01       4    7    1         0.7058544347E+00      0.1539363267E+01
          0                 3           2             4    7     1      -0.8909339046E-03       4    7    1        -0.4941003943E-01      0.1077556668E+00
          0                 4           1             4    7     1       0.3545107931E-04       4    7    1         0.2020872475E-02      0.4407210202E-02

    ------------------------------------------------
       NWT REQUIRED            4 OUTER ITERATIONS 
       AND A TOTAL OF          7 INNER ITERATIONS.
    ------------------------------------------------

 NO OUTPUT CONTROL FOR STRESS PERIOD   20   TIME STEP   23
 
 SOLVING FOR HEAD 
                                                   Max.-Head-Change                         Max.-Flux-Residual
  Residual-Control   Outer-Iter.   Inner-Iter.     Column Row Layer    Maximum-Head-Change  Column Row Layer    Maximum-Flux-Residual          L2-NORM 
          0                 1           2             4    7     1      -0.1331638914E+00       4    7    1        -0.6988621918E+01      0.1525585756E+02
          0                 2           2             4    7     1       0.1295289217E-01       4    7    1         0.6988404949E+00      0.1525564206E+01
          0                 3           2             4    7     1      -0.8820470981E-03       4    7    1        -0.4891906107E-01      0.1067897295E+00
          0                 4           1             4    7     1       0.3509746500E-04       4    7    1         0.2000791426E-02      0.4367705621E-02

    ------------------------------------------------
       NWT REQUIRED            4 OUTER ITERATIONS 
       AND A TOTAL OF          7 INNER ITERATIONS.
    ------------------------------------------------

 NO OUTPUT CONTROL FOR STRESS PERIOD   20   TIME STEP   24
 
 SOLVING FOR HEAD 
                                                   Max.-Head-Change                         Max.-Flux-Residual
  Residual-Control   Outer-Iter.   Inner-Iter.     Column Row Layer    Maximum-Head-Change  Column Row Layer    Maximum-Flux-Residual          L2-NORM 
          0                 1           2             4    7     1      -0.1318313754E+00       4    7    1        -0.6918907862E+01      0.1512171283E+02
          0                 2           2             4    7     1       0.1282327868E-01       4    7    1         0.6918693539E+00      0.1512150191E+01
          0                 3           2             4    7     1      -0.8732208608E-03       4    7    1        -0.4843107847E-01      0.1058507512E+00
          0                 4           1             4    7     1       0.3474626111E-04       4    7    1         0.1980832923E-02      0.4329300413E-02

    ------------------------------------------------
       NWT REQUIRED            4 OUTER ITERATIONS 
       AND A TOTAL OF          7 INNER ITERATIONS.
    ------------------------------------------------

 NO OUTPUT CONTROL FOR STRESS PERIOD   20   TIME STEP   25
 
 SOLVING FOR HEAD 
                                                   Max.-Head-Change                         Max.-Flux-Residual
  Residual-Control   Outer-Iter.   Inner-Iter.     Column Row Layer    Maximum-Head-Change  Column Row Layer    Maximum-Flux-Residual          L2-NORM 
          0                 1           2             4    7     1      -0.1305089417E+00       4    7    1        -0.6849675217E+01      0.1499125692E+02
          0                 2           2             4    7     1       0.1269464609E-01       4    7    1         0.6849463662E+00      0.1499105030E+01
          0                 3           2             4    7     1      -0.8644614179E-03       4    7    1        -0.4794646651E-01      0.1049375925E+00
          0                 4           1             4    7     1       0.3439771472E-04       4    7    1         0.1961012279E-02      0.4292083346E-02

    ------------------------------------------------
       NWT REQUIRED            4 OUTER ITERATIONS 
       AND A TOTAL OF          7 INNER ITERATIONS.
    ------------------------------------------------

 NO OUTPUT CONTROL FOR STRESS PERIOD   20   TIME STEP   26
 
 SOLVING FOR HEAD 
                                                   Max.-Head-Change                         Max.-Flux-Residual
  Residual-Control   Outer-Iter.   Inner-Iter.     Column Row Layer    Maximum-Head-Change  Column Row Layer    Maximum-Flux-Residual          L2-NORM 
          0                 1           2             4    7     1      -0.1291971678E+00       4    7    1        -0.6780958163E+01      0.1486430578E+02
          0                 2           2             4    7     1       0.1256705055E-01       4    7    1         0.6780749482E+00      0.1486410349E+01
          0                 3           2             4    7     1      -0.8557725930E-03       4    7    1        -0.4746546432E-01      0.1040489490E+00
          0                 4           1             4    7     1       0.3405197848E-04       4    7    1         0.1941339277E-02      0.4255606406E-02

    ------------------------------------------------
       NWT REQUIRED            4 OUTER ITERATIONS 
       AND A TOTAL OF          7 INNER ITERATIONS.
    ------------------------------------------------

 NO OUTPUT CONTROL FOR STRESS PERIOD   20   TIME STEP   27
 
 SOLVING FOR HEAD 
                                                   Max.-Head-Change                         Max.-Flux-Residual
  Residual-Control   Outer-Iter.   Inner-Iter.     Column Row Layer    Maximum-Head-Change  Column Row Layer    Maximum-Flux-Residual          L2-NORM 
          0                 1           2             4    7     1      -0.1278967083E+00       4    7    1        -0.6712793923E+01      0.1474073079E+02
          0                 2           2             4    7     1       0.1244055575E-01       4    7    1         0.6712588205E+00      0.1474053273E+01
          0                 3           2             4    7     1      -0.8471587221E-03       4    7    1        -0.4698833238E-01      0.1031839494E+00
          0                 4           1             4    7     1       0.3370922473E-04       4    7    1         0.1921824556E-02      0.4220228179E-02

    ------------------------------------------------
       NWT REQUIRED            4 OUTER ITERATIONS 
       AND A TOTAL OF          7 INNER ITERATIONS.
    ------------------------------------------------

 NO OUTPUT CONTROL FOR STRESS PERIOD   20   TIME STEP   28
 
 SOLVING FOR HEAD 
                                                   Max.-Head-Change                         Max.-Flux-Residual
  Residual-Control   Outer-Iter.   Inner-Iter.     Column Row Layer    Maximum-Head-Change  Column Row Layer    Maximum-Flux-Residual          L2-NORM 
          0                 1           2             4    7     1      -0.1266082731E+00       4    7    1        -0.6645223718E+01      0.1462038092E+02
          0                 2           2             4    7     1       0.1231523067E-01       4    7    1         0.6645021038E+00      0.1462018702E+01
          0                 3           2             4    7     1      -0.8386245050E-03       4    7    1        -0.4651535913E-01      0.1023415277E+00
          0                 4           1             4    7     1       0.3336964068E-04       4    7    1         0.1902479948E-02      0.4185772462E-02

    ------------------------------------------------
       NWT REQUIRED            4 OUTER ITERATIONS 
       AND A TOTAL OF          7 INNER ITERATIONS.
    ------------------------------------------------

 NO OUTPUT CONTROL FOR STRESS PERIOD   20   TIME STEP   29
 
 SOLVING FOR HEAD 
                                                   Max.-Head-Change                         Max.-Flux-Residual
  Residual-Control   Outer-Iter.   Inner-Iter.     Column Row Layer    Maximum-Head-Change  Column Row Layer    Maximum-Flux-Residual          L2-NORM 
          0                 1           2             4    7     1      -0.1253324278E+00       4    7    1        -0.6578277071E+01      0.1451426689E+02
          0                 2           2             4    7     1       0.1219113035E-01       4    7    1         0.6578077494E+00      0.1451387202E+01
          0                 3           2             4    7     1      -0.8301736880E-03       4    7    1        -0.4604675119E-01      0.1015954922E+00
          0                 4           1             4    7     1       0.3303337506E-04       4    7    1         0.1883313878E-02      0.4155144966E-02

    ------------------------------------------------
       NWT REQUIRED            4 OUTER ITERATIONS 
       AND A TOTAL OF          7 INNER ITERATIONS.
    ------------------------------------------------

 NO OUTPUT CONTROL FOR STRESS PERIOD   20   TIME STEP   30



 STREAM LISTING     PERIOD     20   STEP       30

 LAYER ROW COL. STREAM  RCH.  FLOW INTO     FLOW TO   FLOW OUT OF   OVRLND.     DIRECT     STREAM       STREAM     STREAM     STREAM   STREAMBED  STREAMBED
                SEG.NO.  NO.  STRM. RCH.    AQUIFER    STRM. RCH.    RUNOFF     PRECIP       ET          HEAD       DEPTH      WIDTH   CONDCTNC.   GRADIENT

   1    1    1     1     1    3.2276E+01  2.7609E-01   3.2000E+01  0.000E+00  0.000E+00  0.000E+00  1.09432E+03  1.269E+00  1.437E+01  6.467E-02  1.423E+00
   1    2    2     1     2    3.2000E+01  4.2738E-01   3.1573E+01  0.000E+00  0.000E+00  0.000E+00  1.08932E+03  1.266E+00  1.431E+01  1.002E-01  1.422E+00
   1    3    3     1     3    3.1573E+01  3.6428E-01   3.1209E+01  0.000E+00  0.000E+00  0.000E+00  1.08368E+03  1.263E+00  1.424E+01  8.546E-02  1.421E+00
   1    3    4     1     4    3.1209E+01  3.3528E-01   3.0873E+01  0.000E+00  0.000E+00  0.000E+00  1.07867E+03  1.259E+00  1.418E+01  7.871E-02  1.420E+00
   1    4    5     2     1    2.8873E+01  3.3633E-01   2.8537E+01  0.000E+00  0.000E+00  0.000E+00  1.07325E+03  1.312E+00  1.200E+01  7.800E-02  1.437E+00
   1    5    6     2     2    2.8537E+01  2.5823E-01   2.8279E+01  0.000E+00  0.000E+00  0.000E+00  1.06781E+03  1.304E+00  1.200E+01  6.000E-02  1.435E+00
   1    6    6     2     3    2.8279E+01  2.5780E-01   2.8021E+01  0.000E+00  0.000E+00  0.000E+00  1.06309E+03  1.297E+00  1.200E+01  6.000E-02  1.432E+00
   1    7    6     2     4    2.8021E+01  2.5737E-01   2.7764E+01  0.000E+00  0.000E+00  0.000E+00  1.05836E+03  1.290E+00  1.200E+01  6.000E-02  1.430E+00
   1    8    6     2     5    2.7764E+01  2.5694E-01   2.7507E+01  0.000E+00  0.000E+00  0.000E+00  1.05364E+03  1.282E+00  1.200E+01  6.000E-02  1.427E+00
   1    3    5     3     1    2.0000E+00  2.8252E-01   1.7175E+00  0.000E+00  0.000E+00  0.000E+00  1.07555E+03  1.909E+00  9.636E+00  7.227E-02  1.955E+00
   1    3    6     3     2    1.7175E+00  2.4905E-01   1.4684E+00  0.000E+00  0.000E+00  0.000E+00  1.07264E+03  1.727E+00  8.909E+00  6.682E-02  1.864E+00
   1    3    7     3     3    1.4684E+00  1.9718E-01   1.2712E+00  0.000E+00  0.000E+00  0.000E+00  1.06987E+03  1.555E+00  8.218E+00  5.547E-02  1.777E+00
   1    4    8     3     4    1.2712E+00  2.2567E-01   1.0456E+00  0.000E+00  0.000E+00  0.000E+00  1.06682E+03  1.364E+00  7.455E+00  6.709E-02  1.682E+00
   1    5    8     3     5    1.0456E+00  1.5790E-01   8.8768E-01  0.000E+00  0.000E+00  0.000E+00  1.06362E+03  1.164E+00  6.655E+00  4.991E-02  1.582E+00
   1    6    8     3     6    8.8768E-01  5.5980E-02   8.3170E-01  0.000E+00  0.000E+00  0.000E+00  1.06158E+03  1.036E+00  6.145E+00  1.844E-02  1.518E+00
   1    5   10     4     1    1.0000E+01  9.0919E-02   9.9091E+00  0.000E+00  0.000E+00  0.000E+00  1.07836E+03  6.368E-01  1.000E+01  2.500E-02  1.212E+00
   1    5    9     4     2    9.9091E+00  1.8158E-01   9.7275E+00  0.000E+00  0.000E+00  0.000E+00  1.07154E+03  6.315E-01  1.000E+01  5.000E-02  1.211E+00
   1    6    8     4     3    9.7275E+00  1.2689E-01   9.6006E+00  0.000E+00  0.000E+00  0.000E+00  1.06381E+03  6.256E-01  1.000E+01  3.500E-02  1.209E+00
   1    6    8     5     1    1.0432E+01  2.2686E-01   1.0205E+01  0.000E+00  0.000E+00  0.000E+00  1.05868E+03  6.790E-01  1.542E+01  6.166E-02  1.226E+00
   1    7    7     5     2    1.0205E+01  2.7894E-01   9.9265E+00  0.000E+00  0.000E+00  0.000E+00  1.05417E+03  6.732E-01  1.519E+01  7.594E-02  1.224E+00
   1    8    7     5     3    9.9265E+00  1.9221E-01   9.7343E+00  0.000E+00  0.000E+00  0.000E+00  1.04992E+03  6.676E-01  1.497E+01  5.241E-02  1.223E+00
   1    8    6     5     4    9.7343E+00  1.3577E-01   9.5985E+00  0.000E+00  0.000E+00  0.000E+00  1.04691E+03  6.637E-01  1.482E+01  3.706E-02  1.221E+00
   1    9    6     6     1    3.7105E+01  2.7265E-01   3.6833E+01  0.000E+00  0.000E+00  0.000E+00  1.04427E+03  1.544E+00  1.200E+01  6.000E-02  1.515E+00
   1   10    7     6     2    3.6833E+01  2.7224E-01   3.6560E+01  0.000E+00  0.000E+00  0.000E+00  1.03972E+03  1.537E+00  1.200E+01  6.000E-02  1.512E+00
   1   11    7     6     3    3.6560E+01  2.7182E-01   3.6289E+01  0.000E+00  0.000E+00  0.000E+00  1.03517E+03  1.530E+00  1.200E+01  6.000E-02  1.510E+00
   1   12    7     6     4    3.6289E+01  2.7141E-01   3.6017E+01  0.000E+00  0.000E+00  0.000E+00  1.03061E+03  1.524E+00  1.200E+01  6.000E-02  1.508E+00
   1   13    7     6     5    3.6017E+01  9.7912E-03   3.6007E+01  0.000E+00  0.000E+00  0.000E+00  1.02743E+03  1.520E+00  1.200E+01  2.400E-02  1.360E-01
   1   14    9     7     1    1.5000E+02  1.3380E+00   1.4866E+02  0.000E+00  0.000E+00  0.000E+00  1.03987E+03  2.288E+00  5.529E+01  5.593E-01  7.974E-01
   1   13    8     7     2    1.4866E+02  1.8482E+00   1.4681E+02  0.000E+00  0.000E+00  0.000E+00  1.03478E+03  2.279E+00  5.526E+01  6.148E-01  1.002E+00
   1   13    7     7     3    1.4681E+02  1.4902E+00   1.4532E+02  0.000E+00  0.000E+00  0.000E+00  1.02969E+03  2.270E+00  5.522E+01  5.584E-01  8.895E-01
   1   13    6     8     1    1.8133E+02  9.8278E-01   1.8035E+02  0.000E+00  0.000E+00  0.000E+00  1.02490E+03  3.021E+00  4.381E+01  4.464E-01  7.338E-01
   1   13    5     8     2    1.8035E+02  2.1514E-01   1.8013E+02  0.000E+00  0.000E+00  0.000E+00  1.01864E+03  3.018E+00  4.376E+01  4.459E-01  1.608E-01
   1   13    4     8     3    1.8013E+02 -2.4352E+00   1.8257E+02  0.000E+00  0.000E+00  0.000E+00  1.01240E+03  3.025E+00  4.386E+01  4.469E+00 -1.816E-01
   1   13    3     8     4    1.8257E+02 -3.7191E+00   1.8629E+02  0.000E+00  0.000E+00  0.000E+00  1.00617E+03  3.044E+00  4.413E+01  4.497E+00 -2.756E-01
   1   13    2     8     5    1.8629E+02 -2.7088E+00   1.8900E+02  0.000E+00  0.000E+00  0.000E+00  9.99939E+02  3.064E+00  4.442E+01  4.527E+00 -1.995E-01
   1   13    1     8     6    1.8900E+02 -2.0713E+00   1.9107E+02  0.000E+00  0.000E+00  0.000E+00  9.94953E+02  3.078E+00  4.463E+01  2.729E+00 -2.530E-01
   1    8    6     9     1    0.0000E+00  0.0000E+00   0.0000E+00  0.000E+00  0.000E+00  0.000E+00  1.07875E+03  0.000E+00  4.000E+00  0.000E+00  1.000E+00
   1    8    5     9     2    0.0000E+00  0.0000E+00   0.0000E+00  0.000E+00  0.000E+00  0.000E+00  1.07825E+03  0.000E+00  4.000E+00  0.000E+00  1.000E+00





UNSATURATED ZONE PACKAGE VOLUMETRIC BUDGET FOR  TIME STEP    30 STRESS PERIOD   20
  ------------------------------------------------------------------------------



     CUMULATIVE VOLUMES      L**3       RATES FOR THIS TIME STEP      L**3/T
     ------------------                 ------------------------

           IN:                                      IN:
           ---                                      ---
        INFILTRATION =   692559321.0797          INFILTRATION =          60.8175

          OUT:                                     OUT:
          ----                                     ----
              UZF ET =   691813853.5355                UZF ET =          60.8175
        UZF RECHARGE =       73224.0000          UZF RECHARGE =       0.0000E+00

            IN - OUT =      672243.5441              IN - OUT =       0.0000E+00

          STORAGE:                                 STORAGE:
          --------                                 --------
      STORAGE CHANGE =      672243.4909        STORAGE CHANGE =       0.0000E+00

 PERCENT DISCREPANCY IS DIFFERENCE BETWEEN IN-OUT MINUS CHANGE IN STORAGE
 DIVIDED BY THE AVERAGE OF IN AND OUT TIMES 100

 PERCENT DISCREPANCY =           0.00     PERCENT DISCREPANCY =           0.00






1
  VOLUMETRIC BUDGET FOR AGRICULTURAL FIELDS AT  END OF TIME STEP   30, STRESS PERIOD  20
  ------------------------------------------------------------------------------

     CUMULATIVE VOLUMES      L**3       RATES FOR THIS TIME STEP      L**3/T
     ------------------                 ------------------------

           IN:                                      IN:
           ---                                      ---
               AG WELLS  =   650135360.0000                 AG WELLS  =          59.9700
      DIVERSION SEGMENTS =           0.0000        DIVERSION SEGMENTS =           0.0000
       IRRIGATION PONDS  =           0.0000         IRRIGATION PONDS  =           0.0000
           GW IRRIGATION =           0.0000             GW IRRIGATION =           0.0000
           SW IRRIGATION =           0.0000             SW IRRIGATION =           0.0000
        SYSTEM LOSSES GW =           0.0000          SYSTEM LOSSES GW =           0.0000
        SYSTEM LOSSES SW =           0.0000          SYSTEM LOSSES SW =           0.0000

                TOTAL IN =   650135360.0000                  TOTAL IN =          59.9700

          OUT:                                     OUT:
          ----                                     ----
               AG WELLS  =           0.0000                 AG WELLS  =           0.0000
      DIVERSION SEGMENTS =           0.0000        DIVERSION SEGMENTS =           0.0000
       IRRIGATION PONDS  =           0.0000         IRRIGATION PONDS  =           0.0000
           GW IRRIGATION =   650135360.0000             GW IRRIGATION =          59.9700
           SW IRRIGATION =           0.0000             SW IRRIGATION =           0.0000
        SYSTEM LOSSES GW =           0.0000          SYSTEM LOSSES GW =           0.0000
        SYSTEM LOSSES SW =           0.0000          SYSTEM LOSSES SW =           0.0000

               TOTAL OUT =   650135360.0000                 TOTAL OUT =          59.9700

                IN - OUT =           0.0000                  IN - OUT =           0.0000

     PERCENT DISCREPANCY =           0.00         PERCENT DISCREPANCY =           0.00



1
  VOLUMETRIC BUDGET FOR ENTIRE MODEL AT END OF TIME STEP   30, STRESS PERIOD  20
  ------------------------------------------------------------------------------

     CUMULATIVE VOLUMES      L**3       RATES FOR THIS TIME STEP      L**3/T
     ------------------                 ------------------------

           IN:                                      IN:
           ---                                      ---
             STORAGE     =   810590272.0000               STORAGE     =          58.9994
       CONSTANT HEAD     =           0.0000         CONSTANT HEAD     =           0.0000
     HEAD DEP BOUNDS     =    14302441.0000       HEAD DEP BOUNDS     =           0.2859
      STREAM LEAKAGE     =   610483136.0000        STREAM LEAKAGE     =          12.1434
        UZF RECHARGE     =       73223.9531          UZF RECHARGE     =           0.0000
               GW ET     =           0.0000                 GW ET     =           0.0000
     SURFACE LEAKAGE     =           0.0000       SURFACE LEAKAGE     =           0.0000
           AG WELLS      =           0.0000             AG WELLS      =           0.0000

                TOTAL IN =  1435449088.0000                  TOTAL IN =          71.4287

          OUT:                                     OUT:
          ----                                     ----
             STORAGE     =   238699376.0000               STORAGE     =           0.2316
       CONSTANT HEAD     =           0.0000         CONSTANT HEAD     =           0.0000
     HEAD DEP BOUNDS     =    14652090.0000       HEAD DEP BOUNDS     =           0.2931
      STREAM LEAKAGE     =   524650784.0000        STREAM LEAKAGE     =          10.9343
        UZF RECHARGE     =           0.0000          UZF RECHARGE     =           0.0000
               GW ET     =     7311766.5000                 GW ET     =           0.0000
     SURFACE LEAKAGE     =           0.0000       SURFACE LEAKAGE     =           0.0000
           AG WELLS      =   650135360.0000             AG WELLS      =          59.9700

               TOTAL OUT =  1435449344.0000                 TOTAL OUT =          71.4289

                IN - OUT =        -256.0000                  IN - OUT =      -2.0599E-04

     PERCENT DISCREPANCY =          -0.00         PERCENT DISCREPANCY =          -0.00






         TIME SUMMARY AT END OF TIME STEP   30 IN STRESS PERIOD   20
                    SECONDS     MINUTES      HOURS       DAYS        YEARS
                    -----------------------------------------------------------
   TIME STEP LENGTH  87667.      1461.1      24.352      1.0147     2.77799E-03
 STRESS PERIOD TIME 2.63000E+06  43833.      730.56      30.440     8.33397E-02
         TOTAL TIME 5.00565E+07 8.34276E+05  13905.      579.36      1.5862    
1
1
                            STRESS PERIOD NO.   21, LENGTH =   2630000.    
                            -----------------------------------------------

                              NUMBER OF TIME STEPS =    30

                               MULTIPLIER FOR DELT =     1.000

                            INITIAL TIME STEP SIZE =   87666.66    

 REUSING NON-PARAMETER GHB CELLS FROM LAST STRESS PERIOD

      2 GHB CELLS

 REUSING STREAM SEGMENT DATA FROM LAST STRESS PERIOD



            AREAL INFILTRATION RATE
 READING ON UNIT   19 WITH FORMAT: (FREE)              

            1           2           3           4           5           6           7           8           9          10
 ........................................................................................................................
   1   1.0000E-10  2.0000E-10   0.000       0.000       0.000       0.000       0.000       0.000       0.000       0.000    
   2   2.0000E-10  1.0000E-10  2.0000E-10   0.000       0.000      8.0000E-10  8.0000E-10  5.0000E-10   0.000       0.000    
   3    0.000      5.0000E-10  1.0000E-10  1.0000E-10  8.0000E-10  8.0000E-10  5.0000E-10  5.0000E-10   0.000       0.000    
   4   8.0000E-10  5.0000E-10  1.0000E-10  1.0000E-10  1.0000E-10  1.0000E-10  1.0000E-10  1.0000E-10  2.0000E-10   0.000    
   5   8.0000E-10  5.0000E-10  1.0000E-10  1.0000E-10  1.0000E-10  1.0000E-10  1.0000E-10  1.0000E-10  1.0000E-10  1.0000E-10
   6   8.0000E-10  5.0000E-10  5.0000E-10  2.0000E-10  2.0000E-10  1.0000E-10  1.0000E-10  1.0000E-10  1.0000E-10  5.0000E-10
   7   8.0000E-10  5.0000E-10  5.0000E-10  2.0000E-10  2.0000E-10  1.0000E-10  1.0000E-10  2.0000E-10  2.0000E-10   0.000    
   8    0.000      5.0000E-10  5.0000E-10  2.0000E-10  2.0000E-10  1.0000E-10  1.0000E-10  2.0000E-10  5.0000E-10   0.000    
   9    0.000      5.0000E-10  5.0000E-10  2.0000E-10  2.0000E-10  1.0000E-10  1.0000E-10  2.0000E-10  5.0000E-10   0.000    
  10    0.000      5.0000E-10  5.0000E-10  2.0000E-10  2.0000E-10  1.0000E-10  1.0000E-10  2.0000E-10  5.0000E-10  8.0000E-10
  11    0.000      1.0000E-10  1.0000E-10  1.0000E-10  1.0000E-10  1.0000E-10  1.0000E-10  2.0000E-10  5.0000E-10   0.000    
  12   1.0000E-10  1.0000E-10  1.0000E-10  1.0000E-10  1.0000E-10  1.0000E-10  1.0000E-10  1.0000E-10  2.0000E-10   0.000    
  13   1.0000E-10  1.0000E-10  2.0000E-10  2.0000E-10  2.0000E-10  2.0000E-10  2.0000E-10  1.0000E-10  1.0000E-10   0.000    
  14    0.000      2.0000E-10  5.0000E-10  5.0000E-10  5.0000E-10  5.0000E-10  5.0000E-10  2.0000E-10  1.0000E-10   0.000    
  15    0.000       0.000      8.0000E-10  8.0000E-10  8.0000E-10  8.0000E-10   0.000       0.000       0.000       0.000    

                  ET RATE =  3.250000E-07

 USING ET EXTINCTION DEPTH FROM PREVIOUS STRESS PERIOD. CURRENT PERIOD IS:      21

 USING EXTINCTION WATER CONTENT FROM PREVIOUS STRESS PERIOD. CURRENT PERIOD IS:      21

 USING AIR ENTRY PRESSURE FROM PREVIOUS STRESS PERIOD. CURRENT PERIOD IS:      21

 USING ROOT PRESSURE HEAD FROM PREVIOUS STRESS PERIOD. CURRENT PERIOD IS:      21

 USING ROOT ACTIVITY FROM PREVIOUS STRESS PERIOD. CURRENT PERIOD IS:      21

 PROCESSING AG STRESS PERIOD DATA

 READING AG STRESS PERIOD DATA

 READING IRRIGATION SEGMENT

 READING IRRIGATION WELL

 READING SUPPLEMENTAL WELL

 NO IRRPOND OR REUSING IRRPOND DATA FROM LAST STRESS PERIOD

 END PROCESSING AG STRESS PERIOD DATA OPTIONS
 
 SOLVING FOR HEAD 
                                                   Max.-Head-Change                         Max.-Flux-Residual
  Residual-Control   Outer-Iter.   Inner-Iter.     Column Row Layer    Maximum-Head-Change  Column Row Layer    Maximum-Flux-Residual          L2-NORM 
          0                 1           2             4    7     1      -0.8815330611E-01       4    7    1        -0.4636983313E+01      0.1039884417E+02
          0                 2           2             4    7     1       0.8574733295E-02       4    7    1         0.4636861988E+00      0.1039817424E+01
          0                 3           2             4    7     1      -0.5839093048E-03       4    7    1        -0.3245816273E-01      0.7278201492E-01
          0                 4           1             4    7     1       0.2323429005E-04       4    7    1         0.1327540181E-02      0.2976446828E-02

    ------------------------------------------------
       NWT REQUIRED            4 OUTER ITERATIONS 
       AND A TOTAL OF          7 INNER ITERATIONS.
    ------------------------------------------------

 NO OUTPUT CONTROL FOR STRESS PERIOD   21   TIME STEP    1
 
 SOLVING FOR HEAD 
                                                   Max.-Head-Change                         Max.-Flux-Residual
  Residual-Control   Outer-Iter.   Inner-Iter.     Column Row Layer    Maximum-Head-Change  Column Row Layer    Maximum-Flux-Residual          L2-NORM 
          0                 1           2             4    7     1      -0.8709035167E-01       4    7    1        -0.4580237482E+01      0.1033522564E+02
          0                 2           2             4    7     1       0.8471342502E-02       4    7    1         0.4580120032E+00      0.1033463760E+01
          0                 3           2             4    7     1      -0.5768687192E-03       4    7    1        -0.3206096519E-01      0.7233800317E-01
          0                 4           1             4    7     1       0.2295413877E-04       4    7    1         0.1311294789E-02      0.2958346234E-02

    ------------------------------------------------
       NWT REQUIRED            4 OUTER ITERATIONS 
       AND A TOTAL OF          7 INNER ITERATIONS.
    ------------------------------------------------

 NO OUTPUT CONTROL FOR STRESS PERIOD   21   TIME STEP    2
 
 SOLVING FOR HEAD 
                                                   Max.-Head-Change                         Max.-Flux-Residual
  Residual-Control   Outer-Iter.   Inner-Iter.     Column Row Layer    Maximum-Head-Change  Column Row Layer    Maximum-Flux-Residual          L2-NORM 
          0                 1           2             4    7     1      -0.8605555671E-01       4    7    1        -0.4525005682E+01      0.1027328772E+02
          0                 2           2             4    7     1       0.8370690622E-02       4    7    1         0.4524891945E+00      0.1027277011E+01
          0                 3           2             4    7     1      -0.5700146462E-03       4    7    1        -0.3167436491E-01      0.7190555348E-01
          0                 4           1             4    7     1       0.2268140897E-04       4    7    1         0.1295482836E-02      0.2940730741E-02

    ------------------------------------------------
       NWT REQUIRED            4 OUTER ITERATIONS 
       AND A TOTAL OF          7 INNER ITERATIONS.
    ------------------------------------------------

 NO OUTPUT CONTROL FOR STRESS PERIOD   21   TIME STEP    3
 
 SOLVING FOR HEAD 
                                                   Max.-Head-Change                         Max.-Flux-Residual
  Residual-Control   Outer-Iter.   Inner-Iter.     Column Row Layer    Maximum-Head-Change  Column Row Layer    Maximum-Flux-Residual          L2-NORM 
          0                 1           2             4    7     1      -0.8504803788E-01       4    7    1        -0.4471241272E+01      0.1021291475E+02
          0                 2           2             4    7     1       0.8272691759E-02       4    7    1         0.4471131094E+00      0.1021266251E+01
          0                 3           2             4    7     1      -0.5633412358E-03       4    7    1        -0.3129803543E-01      0.7148531658E-01
          0                 4           1             4    7     1       0.2241586774E-04       4    7    1         0.1280090942E-02      0.2923562755E-02

    ------------------------------------------------
       NWT REQUIRED            4 OUTER ITERATIONS 
       AND A TOTAL OF          7 INNER ITERATIONS.
    ------------------------------------------------

 NO OUTPUT CONTROL FOR STRESS PERIOD   21   TIME STEP    4
 
 SOLVING FOR HEAD 
                                                   Max.-Head-Change                         Max.-Flux-Residual
  Residual-Control   Outer-Iter.   Inner-Iter.     Column Row Layer    Maximum-Head-Change  Column Row Layer    Maximum-Flux-Residual          L2-NORM 
          0                 1           2             4    7     1      -0.8406666907E-01       4    7    1        -0.4418883920E+01      0.1015399270E+02
          0                 2           2             4    7     1       0.8177236372E-02       4    7    1         0.4418777153E+00      0.1015395422E+01
          0                 3           2             4    7     1      -0.5568410292E-03       4    7    1        -0.3093155447E-01      0.7107481238E-01
          0                 4           1             4    7     1       0.2215721885E-04       4    7    1         0.1265101875E-02      0.2906789525E-02

    ------------------------------------------------
       NWT REQUIRED            4 OUTER ITERATIONS 
       AND A TOTAL OF          7 INNER ITERATIONS.
    ------------------------------------------------

 NO OUTPUT CONTROL FOR STRESS PERIOD   21   TIME STEP    5
 
 SOLVING FOR HEAD 
                                                   Max.-Head-Change                         Max.-Flux-Residual
  Residual-Control   Outer-Iter.   Inner-Iter.     Column Row Layer    Maximum-Head-Change  Column Row Layer    Maximum-Flux-Residual          L2-NORM 
          0                 1           2             4    7     1      -0.8311075790E-01       4    7    1        -0.4367897025E+01      0.1009638774E+02
          0                 2           2             4    7     1       0.8084257029E-02       4    7    1         0.4367793525E+00      0.1009602934E+01
          0                 3           2             4    7     1      -0.5505094335E-03       4    7    1        -0.3057466582E-01      0.7066974582E-01
          0                 4           1             4    7     1       0.2190527902E-04       4    7    1         0.1250505130E-02      0.2890231042E-02

    ------------------------------------------------
       NWT REQUIRED            4 OUTER ITERATIONS 
       AND A TOTAL OF          7 INNER ITERATIONS.
    ------------------------------------------------

 NO OUTPUT CONTROL FOR STRESS PERIOD   21   TIME STEP    6
 
 SOLVING FOR HEAD 
                                                   Max.-Head-Change                         Max.-Flux-Residual
  Residual-Control   Outer-Iter.   Inner-Iter.     Column Row Layer    Maximum-Head-Change  Column Row Layer    Maximum-Flux-Residual          L2-NORM 
          0                 1           2             4    7     1      -0.8217936414E-01       4    7    1        -0.4318230162E+01      0.1004007029E+02
          0                 2           2             4    7     1       0.7993662413E-02       4    7    1         0.4318129795E+00      0.1003975066E+01
          0                 3           2             4    7     1      -0.5443402308E-03       4    7    1        -0.3022701657E-01      0.7027612224E-01
          0                 4           1             4    7     1       0.2165980072E-04       4    7    1         0.1236286263E-02      0.2874180266E-02

    ------------------------------------------------
       NWT REQUIRED            4 OUTER ITERATIONS 
       AND A TOTAL OF          7 INNER ITERATIONS.
    ------------------------------------------------

 NO OUTPUT CONTROL FOR STRESS PERIOD   21   TIME STEP    7
 
 SOLVING FOR HEAD 
                                                   Max.-Head-Change                         Max.-Flux-Residual
  Residual-Control   Outer-Iter.   Inner-Iter.     Column Row Layer    Maximum-Head-Change  Column Row Layer    Maximum-Flux-Residual          L2-NORM 
          0                 1           2             4    7     1      -0.8127157644E-01       4    7    1        -0.4269834573E+01      0.9984990848E+01
          0                 2           2             4    7     1       0.7905363833E-02       4    7    1         0.4269737208E+00      0.9984704787E+00
          0                 3           2             4    7     1      -0.5383273816E-03       4    7    1        -0.2988826548E-01      0.6989107259E-01
          0                 4           1             4    7     1       0.2142054404E-04       4    7    1         0.1222431327E-02      0.2858444788E-02

    ------------------------------------------------
       NWT REQUIRED            4 OUTER ITERATIONS 
       AND A TOTAL OF          7 INNER ITERATIONS.
    ------------------------------------------------

 NO OUTPUT CONTROL FOR STRESS PERIOD   21   TIME STEP    8
 
 SOLVING FOR HEAD 
                                                   Max.-Head-Change                         Max.-Flux-Residual
  Residual-Control   Outer-Iter.   Inner-Iter.     Column Row Layer    Maximum-Head-Change  Column Row Layer    Maximum-Flux-Residual          L2-NORM 
          0                 1           2             4    7     1      -0.8038665170E-01       4    7    1        -0.4222670262E+01      0.9931100520E+01
          0                 2           2             4    7     1       0.7819289014E-02       4    7    1         0.4222575776E+00      0.9930843341E+00
          0                 3           2             4    7     1      -0.5324659643E-03       4    7    1        -0.2955813259E-01      0.6951429245E-01
          0                 4           1             4    7     1       0.2118731279E-04       4    7    1         0.1208928888E-02      0.2843013525E-02

    ------------------------------------------------
       NWT REQUIRED            4 OUTER ITERATIONS 
       AND A TOTAL OF          7 INNER ITERATIONS.
    ------------------------------------------------

 NO OUTPUT CONTROL FOR STRESS PERIOD   21   TIME STEP    9
 
 SOLVING FOR HEAD 
                                                   Max.-Head-Change                         Max.-Flux-Residual
  Residual-Control   Outer-Iter.   Inner-Iter.     Column Row Layer    Maximum-Head-Change  Column Row Layer    Maximum-Flux-Residual          L2-NORM 
          0                 1           2             4    7     1      -0.7952360079E-01       4    7    1        -0.4176684184E+01      0.9878331466E+01
          0                 2           2             4    7     1       0.7735303921E-02       4    7    1         0.4176592458E+00      0.9877963525E+00
          0                 3           2             4    7     1      -0.5267468509E-03       4    7    1        -0.2923624666E-01      0.6914434571E-01
          0                 4           1             4    7     1       0.2095974455E-04       4    7    1         0.1195763748E-02      0.2827888503E-02

    ------------------------------------------------
       NWT REQUIRED            4 OUTER ITERATIONS 
       AND A TOTAL OF          7 INNER ITERATIONS.
    ------------------------------------------------

 NO OUTPUT CONTROL FOR STRESS PERIOD   21   TIME STEP   10
 
 SOLVING FOR HEAD 
                                                   Max.-Head-Change                         Max.-Flux-Residual
  Residual-Control   Outer-Iter.   Inner-Iter.     Column Row Layer    Maximum-Head-Change  Column Row Layer    Maximum-Flux-Residual          L2-NORM 
          0                 1           2             4    7     1      -0.7868208243E-01       4    7    1        -0.4131848835E+01      0.9826657658E+01
          0                 2           2             4    7     1       0.7653488934E-02       4    7    1         0.4131759766E+00      0.9826447799E+00
          0                 3           2             4    7     1      -0.5211755150E-03       4    7    1        -0.2892241513E-01      0.6878392901E-01
          0                 4           1             4    7     1       0.2073805577E-04       4    7    1         0.1182928027E-02      0.2813177224E-02

    ------------------------------------------------
       NWT REQUIRED            4 OUTER ITERATIONS 
       AND A TOTAL OF          7 INNER ITERATIONS.
    ------------------------------------------------

 NO OUTPUT CONTROL FOR STRESS PERIOD   21   TIME STEP   11
 
 SOLVING FOR HEAD 
                                                   Max.-Head-Change                         Max.-Flux-Residual
  Residual-Control   Outer-Iter.   Inner-Iter.     Column Row Layer    Maximum-Head-Change  Column Row Layer    Maximum-Flux-Residual          L2-NORM 
          0                 1           2             4    7     1      -0.7786102246E-01       4    7    1        -0.4088118698E+01      0.9776033782E+01
          0                 2           2             4    7     1       0.7573625923E-02       4    7    1         0.4088032175E+00      0.9775842747E+00
          0                 3           2             4    7     1      -0.5157371036E-03       4    7    1        -0.2861631944E-01      0.6842984292E-01
          0                 4           1             4    7     1       0.2052165675E-04       4    7    1         0.1170408726E-02      0.2798718622E-02

    ------------------------------------------------
       NWT REQUIRED            4 OUTER ITERATIONS 
       AND A TOTAL OF          7 INNER ITERATIONS.
    ------------------------------------------------

 NO OUTPUT CONTROL FOR STRESS PERIOD   21   TIME STEP   12
 
 SOLVING FOR HEAD 
                                                   Max.-Head-Change                         Max.-Flux-Residual
  Residual-Control   Outer-Iter.   Inner-Iter.     Column Row Layer    Maximum-Head-Change  Column Row Layer    Maximum-Flux-Residual          L2-NORM 
          0                 1           2             4    7     1      -0.7705968787E-01       4    7    1        -0.4045451391E+01      0.9726406634E+01
          0                 2           2             4    7     1       0.7495681504E-02       4    7    1         0.4045367311E+00      0.9726232339E+00
          0                 3           2             4    7     1      -0.5104293426E-03       4    7    1        -0.2831766296E-01      0.6808249974E-01
          0                 4           1             4    7     1       0.2031045632E-04       4    7    1         0.1158193669E-02      0.2784451211E-02

    ------------------------------------------------
       NWT REQUIRED            4 OUTER ITERATIONS 
       AND A TOTAL OF          7 INNER ITERATIONS.
    ------------------------------------------------

 NO OUTPUT CONTROL FOR STRESS PERIOD   21   TIME STEP   13
 
 SOLVING FOR HEAD 
                                                   Max.-Head-Change                         Max.-Flux-Residual
  Residual-Control   Outer-Iter.   Inner-Iter.     Column Row Layer    Maximum-Head-Change  Column Row Layer    Maximum-Flux-Residual          L2-NORM 
          0                 1           2             4    7     1      -0.7627759486E-01       4    7    1        -0.4003821387E+01      0.9677730688E+01
          0                 2           2             4    7     1       0.7419608642E-02       4    7    1         0.4003739650E+00      0.9677696855E+00
          0                 3           2             4    7     1      -0.5052490288E-03       4    7    1        -0.2802626699E-01      0.6774311126E-01
          0                 4           1             4    7     1       0.2010432657E-04       4    7    1         0.1146275551E-02      0.2770659095E-02

    ------------------------------------------------
       NWT REQUIRED            4 OUTER ITERATIONS 
       AND A TOTAL OF          7 INNER ITERATIONS.
    ------------------------------------------------

 NO OUTPUT CONTROL FOR STRESS PERIOD   21   TIME STEP   14
 
 SOLVING FOR HEAD 
                                                   Max.-Head-Change                         Max.-Flux-Residual
  Residual-Control   Outer-Iter.   Inner-Iter.     Column Row Layer    Maximum-Head-Change  Column Row Layer    Maximum-Flux-Residual          L2-NORM 
          0                 1           2             4    7     1      -0.7551388210E-01       4    7    1        -0.3963181844E+01      0.9629973997E+01
          0                 2           2             4    7     1       0.7345323499E-02       4    7    1         0.3963102356E+00      0.9629828312E+00
          0                 3           2             4    7     1      -0.5001904541E-03       4    7    1        -0.2774180369E-01      0.6740812911E-01
          0                 4           1             4    7     1       0.1990304150E-04       4    7    1         0.1134641010E-02      0.2756948625E-02

    ------------------------------------------------
       NWT REQUIRED            4 OUTER ITERATIONS 
       AND A TOTAL OF          7 INNER ITERATIONS.
    ------------------------------------------------

 NO OUTPUT CONTROL FOR STRESS PERIOD   21   TIME STEP   15
 
 SOLVING FOR HEAD 
                                                   Max.-Head-Change                         Max.-Flux-Residual
  Residual-Control   Outer-Iter.   Inner-Iter.     Column Row Layer    Maximum-Head-Change  Column Row Layer    Maximum-Flux-Residual          L2-NORM 
          0                 1           2             4    7     1      -0.7476798936E-01       4    7    1        -0.3923502605E+01      0.9582993664E+01
          0                 2           2             4    7     1       0.7266307117E-02       4    7    1         0.3918629138E+00      0.9582529200E+00
          0                 3           2             4    7     1      -0.4948096522E-03       4    7    1        -0.2743048568E-01      0.6707712479E-01
          0                 4           1             4    7     1       0.1968893467E-04       4    7    1         0.1121908111E-02      0.2743397845E-02

    ------------------------------------------------
       NWT REQUIRED            4 OUTER ITERATIONS 
       AND A TOTAL OF          7 INNER ITERATIONS.
    ------------------------------------------------

 NO OUTPUT CONTROL FOR STRESS PERIOD   21   TIME STEP   16
 
 SOLVING FOR HEAD 
                                                   Max.-Head-Change                         Max.-Flux-Residual
  Residual-Control   Outer-Iter.   Inner-Iter.     Column Row Layer    Maximum-Head-Change  Column Row Layer    Maximum-Flux-Residual          L2-NORM 
          0                 1           2             4    7     1      -0.7406562648E-01       4    7    1        -0.3885091938E+01      0.9536898738E+01
          0                 2           2             4    7     1       0.7204457923E-02       4    7    1         0.3885019518E+00      0.9536773935E+00
          0                 3           2             4    7     1      -0.4905979308E-03       4    7    1        -0.2719521689E-01      0.6675690469E-01
          0                 4           1             4    7     1       0.1952134607E-04       4    7    1         0.1112285604E-02      0.2730330088E-02

    ------------------------------------------------
       NWT REQUIRED            4 OUTER ITERATIONS 
       AND A TOTAL OF          7 INNER ITERATIONS.
    ------------------------------------------------

 NO OUTPUT CONTROL FOR STRESS PERIOD   21   TIME STEP   17
 
 SOLVING FOR HEAD 
                                                   Max.-Head-Change                         Max.-Flux-Residual
  Residual-Control   Outer-Iter.   Inner-Iter.     Column Row Layer    Maximum-Head-Change  Column Row Layer    Maximum-Flux-Residual          L2-NORM 
          0                 1           2             4    7     1      -0.7337151849E-01       4    7    1        -0.3848248949E+01      0.9491689561E+01
          0                 2           2             4    7     1       0.7136942751E-02       4    7    1         0.3848178296E+00      0.9491573236E+00
          0                 3           2             4    7     1      -0.4860003725E-03       4    7    1        -0.2693732656E-01      0.6644962670E-01
          0                 4           1             4    7     1       0.1933840521E-04       4    7    1         0.1101737891E-02      0.2840347327E-02

    ------------------------------------------------
       NWT REQUIRED            4 OUTER ITERATIONS 
       AND A TOTAL OF          7 INNER ITERATIONS.
    ------------------------------------------------

 NO OUTPUT CONTROL FOR STRESS PERIOD   21   TIME STEP   18
 
 SOLVING FOR HEAD 
                                                   Max.-Head-Change                         Max.-Flux-Residual
  Residual-Control   Outer-Iter.   Inner-Iter.     Column Row Layer    Maximum-Head-Change  Column Row Layer    Maximum-Flux-Residual          L2-NORM 
          0                 1           2             4    7     1      -0.7269195494E-01       4    7    1        -0.3812186065E+01      0.9447289932E+01
          0                 2           2             4    7     1       0.7070842268E-02       4    7    1         0.3812117119E+00      0.9447181142E+00
          0                 3           2             4    7     1      -0.4814991499E-03       4    7    1        -0.2668489661E-01      0.6612990237E-01
          0                 4           1             4    7     1       0.1915929740E-04       4    7    1         0.1091413490E-02      0.2704701005E-02

    ------------------------------------------------
       NWT REQUIRED            4 OUTER ITERATIONS 
       AND A TOTAL OF          7 INNER ITERATIONS.
    ------------------------------------------------

 NO OUTPUT CONTROL FOR STRESS PERIOD   21   TIME STEP   19
 
 SOLVING FOR HEAD 
                                                   Max.-Head-Change                         Max.-Flux-Residual
  Residual-Control   Outer-Iter.   Inner-Iter.     Column Row Layer    Maximum-Head-Change  Column Row Layer    Maximum-Flux-Residual          L2-NORM 
          0                 1           2             4    7     1      -0.7202632566E-01       4    7    1        -0.3776870096E+01      0.9403665563E+01
          0                 2           2             4    7     1       0.7006097124E-02       4    7    1         0.3776802800E+00      0.9403560018E+00
          0                 3           2             4    7     1      -0.4770902217E-03       4    7    1        -0.2643769469E-01      0.6582459460E-01
          0                 4           1             4    7     1       0.1898386262E-04       4    7    1         0.1081302926E-02      0.2692206272E-02

    ------------------------------------------------
       NWT REQUIRED            4 OUTER ITERATIONS 
       AND A TOTAL OF          7 INNER ITERATIONS.
    ------------------------------------------------

 NO OUTPUT CONTROL FOR STRESS PERIOD   21   TIME STEP   20
 
 SOLVING FOR HEAD 
                                                   Max.-Head-Change                         Max.-Flux-Residual
  Residual-Control   Outer-Iter.   Inner-Iter.     Column Row Layer    Maximum-Head-Change  Column Row Layer    Maximum-Flux-Residual          L2-NORM 
          0                 1           2             4    7     1      -0.7137443746E-01       4    7    1        -0.3742291136E+01      0.9360802768E+01
          0                 2           2             4    7     1       0.6942688531E-02       4    7    1         0.3742225434E+00      0.9360706525E+00
          0                 3           2             4    7     1      -0.4727723084E-03       4    7    1        -0.2619565152E-01      0.6552464429E-01
          0                 4           1             4    7     1       0.1881204861E-04       4    7    1         0.1071403342E-02      0.2679937288E-02

    ------------------------------------------------
       NWT REQUIRED            4 OUTER ITERATIONS 
       AND A TOTAL OF          7 INNER ITERATIONS.
    ------------------------------------------------

 NO OUTPUT CONTROL FOR STRESS PERIOD   21   TIME STEP   21
 
 SOLVING FOR HEAD 
                                                   Max.-Head-Change                         Max.-Flux-Residual
  Residual-Control   Outer-Iter.   Inner-Iter.     Column Row Layer    Maximum-Head-Change  Column Row Layer    Maximum-Flux-Residual          L2-NORM 
          0                 1           2             4    7     1      -0.7073570933E-01       4    7    1        -0.3708417436E+01      0.9318685771E+01
          0                 2           2             4    7     1       0.6880559976E-02       4    7    1         0.3708353274E+00      0.9318594841E+00
          0                 3           2             4    7     1      -0.4685415623E-03       4    7    1        -0.2595854484E-01      0.6522992117E-01
          0                 4           1             4    7     1       0.1864370362E-04       4    7    1         0.1061705698E-02      0.2667896415E-02

    ------------------------------------------------
       NWT REQUIRED            4 OUTER ITERATIONS 
       AND A TOTAL OF          7 INNER ITERATIONS.
    ------------------------------------------------

 NO OUTPUT CONTROL FOR STRESS PERIOD   21   TIME STEP   22
 
 SOLVING FOR HEAD 
                                                   Max.-Head-Change                         Max.-Flux-Residual
  Residual-Control   Outer-Iter.   Inner-Iter.     Column Row Layer    Maximum-Head-Change  Column Row Layer    Maximum-Flux-Residual          L2-NORM 
          0                 1           2             4    7     1      -0.7010984264E-01       4    7    1        -0.3675233354E+01      0.9277282485E+01
          0                 2           2             4    7     1       0.6819682412E-02       4    7    1         0.3675170681E+00      0.9277196283E+00
          0                 3           2             4    7     1      -0.4643960040E-03       4    7    1        -0.2572626518E-01      0.6494016314E-01
          0                 4           1             4    7     1       0.1847874753E-04       4    7    1         0.1052205430E-02      0.2656040437E-02

    ------------------------------------------------
       NWT REQUIRED            4 OUTER ITERATIONS 
       AND A TOTAL OF          7 INNER ITERATIONS.
    ------------------------------------------------

 NO OUTPUT CONTROL FOR STRESS PERIOD   21   TIME STEP   23
 
 SOLVING FOR HEAD 
                                                   Max.-Head-Change                         Max.-Flux-Residual
  Residual-Control   Outer-Iter.   Inner-Iter.     Column Row Layer    Maximum-Head-Change  Column Row Layer    Maximum-Flux-Residual          L2-NORM 
          0                 1           2             4    7     1      -0.6949628887E-01       4    7    1        -0.3642708924E+01      0.9236577560E+01
          0                 2           2             4    7     1       0.6760002488E-02       4    7    1         0.3642647691E+00      0.9236495516E+00
          0                 3           2             4    7     1      -0.4603320018E-03       4    7    1        -0.2549860281E-01      0.6465529154E-01
          0                 4           1             4    7     1       0.1831703746E-04       4    7    1         0.1042894027E-02      0.2644387627E-02

    ------------------------------------------------
       NWT REQUIRED            4 OUTER ITERATIONS 
       AND A TOTAL OF          7 INNER ITERATIONS.
    ------------------------------------------------

 NO OUTPUT CONTROL FOR STRESS PERIOD   21   TIME STEP   24
 
 SOLVING FOR HEAD 
                                                   Max.-Head-Change                         Max.-Flux-Residual
  Residual-Control   Outer-Iter.   Inner-Iter.     Column Row Layer    Maximum-Head-Change  Column Row Layer    Maximum-Flux-Residual          L2-NORM 
          0                 1           2             4    7     1      -0.6889478302E-01       4    7    1        -0.3610830184E+01      0.9196555762E+01
          0                 2           2             4    7     1       0.6701494429E-02       4    7    1         0.3610770344E+00      0.9196452862E+00
          0                 3           2             4    7     1      -0.4563477997E-03       4    7    1        -0.2527545994E-01      0.6437722163E-01
          0                 4           1             4    7     1       0.1815850249E-04       4    7    1         0.1033767488E-02      0.2633352652E-02

    ------------------------------------------------
       NWT REQUIRED            4 OUTER ITERATIONS 
       AND A TOTAL OF          7 INNER ITERATIONS.
    ------------------------------------------------

 NO OUTPUT CONTROL FOR STRESS PERIOD   21   TIME STEP   25
 
 SOLVING FOR HEAD 
                                                   Max.-Head-Change                         Max.-Flux-Residual
  Residual-Control   Outer-Iter.   Inner-Iter.     Column Row Layer    Maximum-Head-Change  Column Row Layer    Maximum-Flux-Residual          L2-NORM 
          0                 1           2             4    7     1      -0.6830494353E-01       4    7    1        -0.3579576155E+01      0.9157199555E+01
          0                 2           2             4    7     1       0.6644121122E-02       4    7    1         0.3579517663E+00      0.9157124536E+00
          0                 3           2             4    7     1      -0.4524408705E-03       4    7    1        -0.2505668980E-01      0.6409972434E-01
          0                 4           1             4    7     1       0.1800304178E-04       4    7    1         0.1024819771E-02      0.2621666625E-02

    ------------------------------------------------
       NWT REQUIRED            4 OUTER ITERATIONS 
       AND A TOTAL OF          7 INNER ITERATIONS.
    ------------------------------------------------

 NO OUTPUT CONTROL FOR STRESS PERIOD   21   TIME STEP   26
 
 SOLVING FOR HEAD 
                                                   Max.-Head-Change                         Max.-Flux-Residual
  Residual-Control   Outer-Iter.   Inner-Iter.     Column Row Layer    Maximum-Head-Change  Column Row Layer    Maximum-Flux-Residual          L2-NORM 
          0                 1           2             4    7     1      -0.6772653200E-01       4    7    1        -0.3548934286E+01      0.9118495714E+01
          0                 2           2             4    7     1       0.6587859380E-02       4    7    1         0.3548877098E+00      0.9118423639E+00
          0                 3           2             4    7     1      -0.4486096358E-03       4    7    1        -0.2484220453E-01      0.6382882395E-01
          0                 4           1             4    7     1       0.1785059361E-04       4    7    1         0.1016047323E-02      0.2610583237E-02

    ------------------------------------------------
       NWT REQUIRED            4 OUTER ITERATIONS 
       AND A TOTAL OF          7 INNER ITERATIONS.
    ------------------------------------------------

 NO OUTPUT CONTROL FOR STRESS PERIOD   21   TIME STEP   27
 
 SOLVING FOR HEAD 
                                                   Max.-Head-Change                         Max.-Flux-Residual
  Residual-Control   Outer-Iter.   Inner-Iter.     Column Row Layer    Maximum-Head-Change  Column Row Layer    Maximum-Flux-Residual          L2-NORM 
          0                 1           2             4    7     1      -0.6715891897E-01       4    7    1        -0.3518870510E+01      0.9080416961E+01
          0                 2           2             4    7     1       0.6532647978E-02       4    7    1         0.3518814584E+00      0.9080347815E+00
          0                 3           2             4    7     1      -0.4448499256E-03       4    7    1        -0.2463176565E-01      0.6356231862E-01
          0                 4           1             4    7     1       0.1770099140E-04       4    7    1         0.1007440367E-02      0.2599690760E-02

    ------------------------------------------------
       NWT REQUIRED            4 OUTER ITERATIONS 
       AND A TOTAL OF          7 INNER ITERATIONS.
    ------------------------------------------------

 NO OUTPUT CONTROL FOR STRESS PERIOD   21   TIME STEP   28
 
 SOLVING FOR HEAD 
                                                   Max.-Head-Change                         Max.-Flux-Residual
  Residual-Control   Outer-Iter.   Inner-Iter.     Column Row Layer    Maximum-Head-Change  Column Row Layer    Maximum-Flux-Residual          L2-NORM 
          0                 1           2             4    7     1      -0.6660216718E-01       4    7    1        -0.3489388363E+01      0.9042961993E+01
          0                 2           2             4    7     1       0.6478493018E-02       4    7    1         0.3489333660E+00      0.9042895398E+00
          0                 3           2             4    7     1      -0.4411621562E-03       4    7    1        -0.2442539793E-01      0.6330017583E-01
          0                 4           1             4    7     1       0.1755425195E-04       4    7    1         0.9989999353E-03      0.2588967301E-02

    ------------------------------------------------
       NWT REQUIRED            4 OUTER ITERATIONS 
       AND A TOTAL OF          7 INNER ITERATIONS.
    ------------------------------------------------

 NO OUTPUT CONTROL FOR STRESS PERIOD   21   TIME STEP   29
 
 SOLVING FOR HEAD 
                                                   Max.-Head-Change                         Max.-Flux-Residual
  Residual-Control   Outer-Iter.   Inner-Iter.     Column Row Layer    Maximum-Head-Change  Column Row Layer    Maximum-Flux-Residual          L2-NORM 
          0                 1           2             4    7     1      -0.6605567260E-01       4    7    1        -0.3460454925E+01      0.9006110126E+01
          0                 2           2             4    7     1       0.6425335749E-02       4    7    1         0.3460401406E+00      0.9006045894E+00
          0                 3           2             4    7     1      -0.4375423261E-03       4    7    1        -0.2422287095E-01      0.6304224232E-01
          0                 4           1             4    7     1       0.1741021534E-04       4    7    1         0.9907165625E-03      0.2578419261E-02

    ------------------------------------------------
       NWT REQUIRED            4 OUTER ITERATIONS 
       AND A TOTAL OF          7 INNER ITERATIONS.
    ------------------------------------------------

 NO OUTPUT CONTROL FOR STRESS PERIOD   21   TIME STEP   30



 STREAM LISTING     PERIOD     21   STEP       30

 LAYER ROW COL. STREAM  RCH.  FLOW INTO     FLOW TO   FLOW OUT OF   OVRLND.     DIRECT     STREAM       STREAM     STREAM     STREAM   STREAMBED  STREAMBED
                SEG.NO.  NO.  STRM. RCH.    AQUIFER    STRM. RCH.    RUNOFF     PRECIP       ET          HEAD       DEPTH      WIDTH   CONDCTNC.   GRADIENT

   1    1    1     1     1    2.7750E+01  2.5751E-01   2.7493E+01  0.000E+00  0.000E+00  0.000E+00  1.09427E+03  1.218E+00  1.357E+01  6.105E-02  1.406E+00
   1    2    2     1     2    2.7493E+01  3.9833E-01   2.7095E+01  0.000E+00  0.000E+00  0.000E+00  1.08927E+03  1.213E+00  1.351E+01  9.454E-02  1.404E+00
   1    3    3     1     3    2.7095E+01  3.3924E-01   2.6755E+01  0.000E+00  0.000E+00  0.000E+00  1.08363E+03  1.208E+00  1.344E+01  8.062E-02  1.403E+00
   1    3    4     1     4    2.6755E+01  3.1201E-01   2.6443E+01  0.000E+00  0.000E+00  0.000E+00  1.07861E+03  1.203E+00  1.337E+01  7.423E-02  1.401E+00
   1    4    5     2     1    2.4443E+01  3.2655E-01   2.4117E+01  0.000E+00  0.000E+00  0.000E+00  1.07312E+03  1.187E+00  1.200E+01  7.800E-02  1.396E+00
   1    5    6     2     2    2.4117E+01  2.5069E-01   2.3866E+01  0.000E+00  0.000E+00  0.000E+00  1.06769E+03  1.178E+00  1.200E+01  6.000E-02  1.393E+00
   1    6    6     2     3    2.3866E+01  2.5024E-01   2.3616E+01  0.000E+00  0.000E+00  0.000E+00  1.06296E+03  1.171E+00  1.200E+01  6.000E-02  1.390E+00
   1    7    6     2     4    2.3616E+01  2.4980E-01   2.3366E+01  0.000E+00  0.000E+00  0.000E+00  1.05824E+03  1.163E+00  1.200E+01  6.000E-02  1.388E+00
   1    8    6     2     5    2.3366E+01  2.4935E-01   2.3117E+01  0.000E+00  0.000E+00  0.000E+00  1.05351E+03  1.156E+00  1.200E+01  6.000E-02  1.385E+00
   1    3    5     3     1    2.0000E+00  2.8252E-01   1.7175E+00  0.000E+00  0.000E+00  0.000E+00  1.07555E+03  1.909E+00  9.636E+00  7.227E-02  1.955E+00
   1    3    6     3     2    1.7175E+00  2.4905E-01   1.4684E+00  0.000E+00  0.000E+00  0.000E+00  1.07264E+03  1.727E+00  8.909E+00  6.682E-02  1.864E+00
   1    3    7     3     3    1.4684E+00  1.9718E-01   1.2712E+00  0.000E+00  0.000E+00  0.000E+00  1.06987E+03  1.555E+00  8.218E+00  5.547E-02  1.777E+00
   1    4    8     3     4    1.2712E+00  2.2567E-01   1.0456E+00  0.000E+00  0.000E+00  0.000E+00  1.06682E+03  1.364E+00  7.455E+00  6.709E-02  1.682E+00
   1    5    8     3     5    1.0456E+00  1.5790E-01   8.8768E-01  0.000E+00  0.000E+00  0.000E+00  1.06362E+03  1.164E+00  6.655E+00  4.991E-02  1.582E+00
   1    6    8     3     6    8.8768E-01  5.5980E-02   8.3170E-01  0.000E+00  0.000E+00  0.000E+00  1.06158E+03  1.036E+00  6.145E+00  1.844E-02  1.518E+00
   1    5   10     4     1    1.0000E+01  9.0919E-02   9.9091E+00  0.000E+00  0.000E+00  0.000E+00  1.07836E+03  6.368E-01  1.000E+01  2.500E-02  1.212E+00
   1    5    9     4     2    9.9091E+00  1.8158E-01   9.7275E+00  0.000E+00  0.000E+00  0.000E+00  1.07154E+03  6.315E-01  1.000E+01  5.000E-02  1.211E+00
   1    6    8     4     3    9.7275E+00  1.2689E-01   9.6006E+00  0.000E+00  0.000E+00  0.000E+00  1.06381E+03  6.256E-01  1.000E+01  3.500E-02  1.209E+00
   1    6    8     5     1    1.0432E+01  2.2686E-01   1.0205E+01  0.000E+00  0.000E+00  0.000E+00  1.05868E+03  6.790E-01  1.542E+01  6.166E-02  1.226E+00
   1    7    7     5     2    1.0205E+01  2.7894E-01   9.9265E+00  0.000E+00  0.000E+00  0.000E+00  1.05417E+03  6.732E-01  1.519E+01  7.594E-02  1.224E+00
   1    8    7     5     3    9.9265E+00  1.9221E-01   9.7343E+00  0.000E+00  0.000E+00  0.000E+00  1.04992E+03  6.676E-01  1.497E+01  5.241E-02  1.223E+00
   1    8    6     5     4    9.7343E+00  1.3577E-01   9.5985E+00  0.000E+00  0.000E+00  0.000E+00  1.04691E+03  6.637E-01  1.482E+01  3.706E-02  1.221E+00
   1    9    6     6     1    3.2715E+01  2.6588E-01   3.2449E+01  0.000E+00  0.000E+00  0.000E+00  1.04416E+03  1.431E+00  1.200E+01  6.000E-02  1.477E+00
   1   10    7     6     2    3.2449E+01  2.6546E-01   3.2184E+01  0.000E+00  0.000E+00  0.000E+00  1.03961E+03  1.424E+00  1.200E+01  6.000E-02  1.475E+00
   1   11    7     6     3    3.2184E+01  2.6504E-01   3.1919E+01  0.000E+00  0.000E+00  0.000E+00  1.03505E+03  1.417E+00  1.200E+01  6.000E-02  1.472E+00
   1   12    7     6     4    3.1919E+01  2.6462E-01   3.1654E+01  0.000E+00  0.000E+00  0.000E+00  1.03050E+03  1.410E+00  1.200E+01  6.000E-02  1.470E+00
   1   13    7     6     5    3.1654E+01  7.4656E-03   3.1647E+01  0.000E+00  0.000E+00  0.000E+00  1.02732E+03  1.407E+00  1.200E+01  2.400E-02  1.037E-01
   1   14    9     7     1    1.5000E+02  1.3389E+00   1.4866E+02  0.000E+00  0.000E+00  0.000E+00  1.03987E+03  2.288E+00  5.529E+01  5.593E-01  7.980E-01
   1   13    8     7     2    1.4866E+02  1.8523E+00   1.4681E+02  0.000E+00  0.000E+00  0.000E+00  1.03478E+03  2.279E+00  5.526E+01  6.148E-01  1.004E+00
   1   13    7     7     3    1.4681E+02  1.4994E+00   1.4531E+02  0.000E+00  0.000E+00  0.000E+00  1.02969E+03  2.270E+00  5.522E+01  5.584E-01  8.950E-01
   1   13    6     8     1    1.7696E+02  9.7690E-01   1.7598E+02  0.000E+00  0.000E+00  0.000E+00  1.02487E+03  2.994E+00  4.341E+01  4.424E-01  7.361E-01
   1   13    5     8     2    1.7598E+02  2.1652E-01   1.7576E+02  0.000E+00  0.000E+00  0.000E+00  1.01862E+03  2.990E+00  4.336E+01  4.418E-01  1.634E-01
   1   13    4     8     3    1.7576E+02 -2.3202E+00   1.7808E+02  0.000E+00  0.000E+00  0.000E+00  1.01237E+03  2.997E+00  4.345E+01  4.428E+00 -1.747E-01
   1   13    3     8     4    1.7808E+02 -3.6091E+00   1.8169E+02  0.000E+00  0.000E+00  0.000E+00  1.00614E+03  3.015E+00  4.372E+01  4.456E+00 -2.700E-01
   1   13    2     8     5    1.8169E+02 -2.5856E+00   1.8428E+02  0.000E+00  0.000E+00  0.000E+00  9.99910E+02  3.035E+00  4.400E+01  4.484E+00 -1.922E-01
   1   13    1     8     6    1.8428E+02 -2.0118E+00   1.8629E+02  0.000E+00  0.000E+00  0.000E+00  9.94924E+02  3.049E+00  4.421E+01  2.703E+00 -2.481E-01
   1    8    6     9     1    0.0000E+00  0.0000E+00   0.0000E+00  0.000E+00  0.000E+00  0.000E+00  1.07875E+03  0.000E+00  4.000E+00  0.000E+00  1.000E+00
   1    8    5     9     2    0.0000E+00  0.0000E+00   0.0000E+00  0.000E+00  0.000E+00  0.000E+00  1.07825E+03  0.000E+00  4.000E+00  0.000E+00  1.000E+00





UNSATURATED ZONE PACKAGE VOLUMETRIC BUDGET FOR  TIME STEP    30 STRESS PERIOD   21
  ------------------------------------------------------------------------------



     CUMULATIVE VOLUMES      L**3       RATES FOR THIS TIME STEP      L**3/T
     ------------------                 ------------------------

           IN:                                      IN:
           ---                                      ---
        INFILTRATION =   822921838.4561          INFILTRATION =          49.5675

          OUT:                                     OUT:
          ----                                     ----
              UZF ET =   822176370.9119                UZF ET =          49.5675
        UZF RECHARGE =       73224.0000          UZF RECHARGE =       0.0000E+00

            IN - OUT =      672243.5441              IN - OUT =       0.0000E+00

          STORAGE:                                 STORAGE:
          --------                                 --------
      STORAGE CHANGE =      672243.4909        STORAGE CHANGE =      -3.3198E-16

 PERCENT DISCREPANCY IS DIFFERENCE BETWEEN IN-OUT MINUS CHANGE IN STORAGE
 DIVIDED BY THE AVERAGE OF IN AND OUT TIMES 100

 PERCENT DISCREPANCY =           0.00     PERCENT DISCREPANCY =           0.00






1
  VOLUMETRIC BUDGET FOR AGRICULTURAL FIELDS AT  END OF TIME STEP   30, STRESS PERIOD  21
  ------------------------------------------------------------------------------

     CUMULATIVE VOLUMES      L**3       RATES FOR THIS TIME STEP      L**3/T
     ------------------                 ------------------------

           IN:                                      IN:
           ---                                      ---
               AG WELLS  =   778268480.0000                 AG WELLS  =          48.7200
      DIVERSION SEGMENTS =           0.0000        DIVERSION SEGMENTS =           0.0000
       IRRIGATION PONDS  =           0.0000         IRRIGATION PONDS  =           0.0000
           GW IRRIGATION =           0.0000             GW IRRIGATION =           0.0000
           SW IRRIGATION =           0.0000             SW IRRIGATION =           0.0000
        SYSTEM LOSSES GW =           0.0000          SYSTEM LOSSES GW =           0.0000
        SYSTEM LOSSES SW =           0.0000          SYSTEM LOSSES SW =           0.0000

                TOTAL IN =   778268480.0000                  TOTAL IN =          48.7200

          OUT:                                     OUT:
          ----                                     ----
               AG WELLS  =           0.0000                 AG WELLS  =           0.0000
      DIVERSION SEGMENTS =           0.0000        DIVERSION SEGMENTS =           0.0000
       IRRIGATION PONDS  =           0.0000         IRRIGATION PONDS  =           0.0000
           GW IRRIGATION =   778268480.0000             GW IRRIGATION =          48.7200
           SW IRRIGATION =           0.0000             SW IRRIGATION =           0.0000
        SYSTEM LOSSES GW =           0.0000          SYSTEM LOSSES GW =           0.0000
        SYSTEM LOSSES SW =           0.0000          SYSTEM LOSSES SW =           0.0000

               TOTAL OUT =   778268480.0000                 TOTAL OUT =          48.7200

                IN - OUT =           0.0000                  IN - OUT =           0.0000

     PERCENT DISCREPANCY =           0.00         PERCENT DISCREPANCY =           0.00



1
  VOLUMETRIC BUDGET FOR ENTIRE MODEL AT END OF TIME STEP   30, STRESS PERIOD  21
  ------------------------------------------------------------------------------

     CUMULATIVE VOLUMES      L**3       RATES FOR THIS TIME STEP      L**3/T
     ------------------                 ------------------------

           IN:                                      IN:
           ---                                      ---
             STORAGE     =   936105344.0000               STORAGE     =          47.4666
       CONSTANT HEAD     =           0.0000         CONSTANT HEAD     =           0.0000
     HEAD DEP BOUNDS     =    15054462.0000       HEAD DEP BOUNDS     =           0.2860
      STREAM LEAKAGE     =   641955072.0000        STREAM LEAKAGE     =          11.9876
        UZF RECHARGE     =       73223.9531          UZF RECHARGE     =           0.0000
               GW ET     =           0.0000                 GW ET     =           0.0000
     SURFACE LEAKAGE     =           0.0000       SURFACE LEAKAGE     =           0.0000
           AG WELLS      =           0.0000             AG WELLS      =           0.0000

                TOTAL IN =  1593188096.0000                  TOTAL IN =          59.7402

          OUT:                                     OUT:
          ----                                     ----
             STORAGE     =   239239600.0000               STORAGE     =           0.2022
       CONSTANT HEAD     =           0.0000         CONSTANT HEAD     =           0.0000
     HEAD DEP BOUNDS     =    15420107.0000       HEAD DEP BOUNDS     =           0.2914
      STREAM LEAKAGE     =   552948736.0000        STREAM LEAKAGE     =          10.5267
        UZF RECHARGE     =           0.0000          UZF RECHARGE     =           0.0000
               GW ET     =     7311766.5000                 GW ET     =           0.0000
     SURFACE LEAKAGE     =           0.0000       SURFACE LEAKAGE     =           0.0000
           AG WELLS      =   778268480.0000             AG WELLS      =          48.7200

               TOTAL OUT =  1593188608.0000                 TOTAL OUT =          59.7404

                IN - OUT =        -512.0000                  IN - OUT =      -1.7166E-04

     PERCENT DISCREPANCY =          -0.00         PERCENT DISCREPANCY =          -0.00






         TIME SUMMARY AT END OF TIME STEP   30 IN STRESS PERIOD   21
                    SECONDS     MINUTES      HOURS       DAYS        YEARS
                    -----------------------------------------------------------
   TIME STEP LENGTH  87667.      1461.1      24.352      1.0147     2.77799E-03
 STRESS PERIOD TIME 2.63000E+06  43833.      730.56      30.440     8.33397E-02
         TOTAL TIME 5.26866E+07 8.78110E+05  14635.      609.80      1.6695    
1
1
                            STRESS PERIOD NO.   22, LENGTH =   2630000.    
                            -----------------------------------------------

                              NUMBER OF TIME STEPS =    30

                               MULTIPLIER FOR DELT =     1.000

                            INITIAL TIME STEP SIZE =   87666.66    

 REUSING NON-PARAMETER GHB CELLS FROM LAST STRESS PERIOD

      2 GHB CELLS

 REUSING STREAM SEGMENT DATA FROM LAST STRESS PERIOD



            AREAL INFILTRATION RATE
 READING ON UNIT   19 WITH FORMAT: (FREE)              

            1           2           3           4           5           6           7           8           9          10
 ........................................................................................................................
   1   1.0000E-10  2.0000E-10   0.000       0.000       0.000       0.000       0.000       0.000       0.000       0.000    
   2   2.0000E-10  1.0000E-10  2.0000E-10   0.000       0.000      8.0000E-10  8.0000E-10  5.0000E-10   0.000       0.000    
   3    0.000      5.0000E-10  1.0000E-10  1.0000E-10  8.0000E-10  8.0000E-10  5.0000E-10  5.0000E-10   0.000       0.000    
   4   8.0000E-10  5.0000E-10  1.0000E-10  1.0000E-10  1.0000E-10  1.0000E-10  1.0000E-10  1.0000E-10  2.0000E-10   0.000    
   5   8.0000E-10  5.0000E-10  1.0000E-10  1.0000E-10  1.0000E-10  1.0000E-10  1.0000E-10  1.0000E-10  1.0000E-10  1.0000E-10
   6   8.0000E-10  5.0000E-10  5.0000E-10  2.0000E-10  2.0000E-10  1.0000E-10  1.0000E-10  1.0000E-10  1.0000E-10  5.0000E-10
   7   8.0000E-10  5.0000E-10  5.0000E-10  2.0000E-10  2.0000E-10  1.0000E-10  1.0000E-10  2.0000E-10  2.0000E-10   0.000    
   8    0.000      5.0000E-10  5.0000E-10  2.0000E-10  2.0000E-10  1.0000E-10  1.0000E-10  2.0000E-10  5.0000E-10   0.000    
   9    0.000      5.0000E-10  5.0000E-10  2.0000E-10  2.0000E-10  1.0000E-10  1.0000E-10  2.0000E-10  5.0000E-10   0.000    
  10    0.000      5.0000E-10  5.0000E-10  2.0000E-10  2.0000E-10  1.0000E-10  1.0000E-10  2.0000E-10  5.0000E-10  8.0000E-10
  11    0.000      1.0000E-10  1.0000E-10  1.0000E-10  1.0000E-10  1.0000E-10  1.0000E-10  2.0000E-10  5.0000E-10   0.000    
  12   1.0000E-10  1.0000E-10  1.0000E-10  1.0000E-10  1.0000E-10  1.0000E-10  1.0000E-10  1.0000E-10  2.0000E-10   0.000    
  13   1.0000E-10  1.0000E-10  2.0000E-10  2.0000E-10  2.0000E-10  2.0000E-10  2.0000E-10  1.0000E-10  1.0000E-10   0.000    
  14    0.000      2.0000E-10  5.0000E-10  5.0000E-10  5.0000E-10  5.0000E-10  5.0000E-10  2.0000E-10  1.0000E-10   0.000    
  15    0.000       0.000      8.0000E-10  8.0000E-10  8.0000E-10  8.0000E-10   0.000       0.000       0.000       0.000    

                  ET RATE =  7.500000E-08

 USING ET EXTINCTION DEPTH FROM PREVIOUS STRESS PERIOD. CURRENT PERIOD IS:      22

 USING EXTINCTION WATER CONTENT FROM PREVIOUS STRESS PERIOD. CURRENT PERIOD IS:      22

 USING AIR ENTRY PRESSURE FROM PREVIOUS STRESS PERIOD. CURRENT PERIOD IS:      22

 USING ROOT PRESSURE HEAD FROM PREVIOUS STRESS PERIOD. CURRENT PERIOD IS:      22

 USING ROOT ACTIVITY FROM PREVIOUS STRESS PERIOD. CURRENT PERIOD IS:      22

 PROCESSING AG STRESS PERIOD DATA

 READING AG STRESS PERIOD DATA

 READING IRRIGATION SEGMENT

 READING IRRIGATION WELL

 READING SUPPLEMENTAL WELL

 NO IRRPOND OR REUSING IRRPOND DATA FROM LAST STRESS PERIOD

 END PROCESSING AG STRESS PERIOD DATA OPTIONS
 
 SOLVING FOR HEAD 
                                                   Max.-Head-Change                         Max.-Flux-Residual
  Residual-Control   Outer-Iter.   Inner-Iter.     Column Row Layer    Maximum-Head-Change  Column Row Layer    Maximum-Flux-Residual          L2-NORM 
          0                 1           2             5    8     1       0.6985490127E-01       5    8    1         0.3804257235E+01      0.1010046516E+02
          0                 2           2             5    8     1      -0.6794864634E-02       5    8    1        -0.3804178789E+00      0.1009990314E+01
          0                 3           2             5    8     1       0.4627062328E-03       5    8    1         0.2662933950E-01      0.7069658994E-01
          0                 4           1             5    8     1      -0.1841150898E-04       5    8    1        -0.1089141137E-02      0.2891329555E-02

    ------------------------------------------------
       NWT REQUIRED            4 OUTER ITERATIONS 
       AND A TOTAL OF          7 INNER ITERATIONS.
    ------------------------------------------------

 NO OUTPUT CONTROL FOR STRESS PERIOD   22   TIME STEP    1
 
 SOLVING FOR HEAD 
                                                   Max.-Head-Change                         Max.-Flux-Residual
  Residual-Control   Outer-Iter.   Inner-Iter.     Column Row Layer    Maximum-Head-Change  Column Row Layer    Maximum-Flux-Residual          L2-NORM 
          0                 1           2             5    8     1       0.6670876561E-01       5    8    1         0.3630028104E+01      0.9783697965E+01
          0                 2           2             5    8     1      -0.6488839074E-02       5    8    1        -0.3629954965E+00      0.9783097570E+00
          0                 3           2             5    8     1       0.4418669520E-03       5    8    1         0.2540976719E-01      0.6847837066E-01
          0                 4           1             5    8     1      -0.1758229507E-04       5    8    1        -0.1039260596E-02      0.2800516897E-02

    ------------------------------------------------
       NWT REQUIRED            4 OUTER ITERATIONS 
       AND A TOTAL OF          7 INNER ITERATIONS.
    ------------------------------------------------

 NO OUTPUT CONTROL FOR STRESS PERIOD   22   TIME STEP    2
 
 SOLVING FOR HEAD 
                                                   Max.-Head-Change                         Max.-Flux-Residual
  Residual-Control   Outer-Iter.   Inner-Iter.     Column Row Layer    Maximum-Head-Change  Column Row Layer    Maximum-Flux-Residual          L2-NORM 
          0                 1           2             5    8     1       0.6375520699E-01       5    8    1         0.3466545791E+01      0.9479369340E+01
          0                 2           2             5    8     1      -0.6201545616E-02       5    8    1        -0.3466477685E+00      0.9478831105E+00
          0                 3           2             5    8     1       0.4223032614E-03       5    8    1         0.2426542098E-01      0.6634880461E-01
          0                 4           1             5    8     1      -0.1680383747E-04       5    8    1        -0.9924567739E-03      0.2713438855E-02

    ------------------------------------------------
       NWT REQUIRED            4 OUTER ITERATIONS 
       AND A TOTAL OF          7 INNER ITERATIONS.
    ------------------------------------------------

 NO OUTPUT CONTROL FOR STRESS PERIOD   22   TIME STEP    3
 
 SOLVING FOR HEAD 
                                                   Max.-Head-Change                         Max.-Flux-Residual
  Residual-Control   Outer-Iter.   Inner-Iter.     Column Row Layer    Maximum-Head-Change  Column Row Layer    Maximum-Flux-Residual          L2-NORM 
          0                 1           2             5    8     1       0.6098012585E-01       5    8    1         0.3313056130E+01      0.9191346837E+01
          0                 2           2             5    8     1      -0.5931612605E-02       5    8    1        -0.3312992679E+00      0.9190863291E+00
          0                 3           2             5    8     1       0.4039217587E-03       5    8    1         0.2319102106E-01      0.6433329091E-01
          0                 4           1             5    8     1      -0.1607242100E-04       5    8    1        -0.9485137900E-03      0.2631005795E-02

    ------------------------------------------------
       NWT REQUIRED            4 OUTER ITERATIONS 
       AND A TOTAL OF          7 INNER ITERATIONS.
    ------------------------------------------------

 NO OUTPUT CONTROL FOR STRESS PERIOD   22   TIME STEP    4
 
 SOLVING FOR HEAD 
                                                   Max.-Head-Change                         Max.-Flux-Residual
  Residual-Control   Outer-Iter.   Inner-Iter.     Column Row Layer    Maximum-Head-Change  Column Row Layer    Maximum-Flux-Residual          L2-NORM 
          0                 1           2             5    6     1       0.5843203085E-01       5    8    1         0.3168851444E+01      0.8918456314E+01
          0                 2           2             5    6     1      -0.5683753842E-02       5    8    1        -0.3168792300E+00      0.8918022112E+00
          0                 3           2             5    6     1       0.3870434821E-03       5    8    1         0.2218161391E-01      0.6242382815E-01
          0                 4           1             5    6     1      -0.1540078431E-04       5    8    1        -0.9072289981E-03      0.2552954740E-02

    ------------------------------------------------
       NWT REQUIRED            4 OUTER ITERATIONS 
       AND A TOTAL OF          7 INNER ITERATIONS.
    ------------------------------------------------

 NO OUTPUT CONTROL FOR STRESS PERIOD   22   TIME STEP    5
 
 SOLVING FOR HEAD 
                                                   Max.-Head-Change                         Max.-Flux-Residual
  Residual-Control   Outer-Iter.   Inner-Iter.     Column Row Layer    Maximum-Head-Change  Column Row Layer    Maximum-Flux-Residual          L2-NORM 
          0                 1           2             5    7     1       0.5633593207E-01       5    6    1         0.3036775432E+01      0.8659630144E+01
          0                 2           2             5    7     1      -0.5479906384E-02       5    6    1        -0.3036717402E+00      0.8659239595E+00
          0                 3           2             5    7     1       0.3731617787E-03       5    6    1         0.2125708816E-01      0.6061255352E-01
          0                 4           1             5    7     1      -0.1484845619E-04       5    6    1        -0.8694158541E-03      0.2478924630E-02

    ------------------------------------------------
       NWT REQUIRED            4 OUTER ITERATIONS 
       AND A TOTAL OF          7 INNER ITERATIONS.
    ------------------------------------------------

 NO OUTPUT CONTROL FOR STRESS PERIOD   22   TIME STEP    6
 
 SOLVING FOR HEAD 
                                                   Max.-Head-Change                         Max.-Flux-Residual
  Residual-Control   Outer-Iter.   Inner-Iter.     Column Row Layer    Maximum-Head-Change  Column Row Layer    Maximum-Flux-Residual          L2-NORM 
          0                 1           2             5    7     1       0.5506293334E-01       5    7    1         0.2927803737E+01      0.8413876013E+01
          0                 2           2             5    7     1      -0.5356084783E-02       5    7    1        -0.2927778553E+00      0.8413524161E+00
          0                 3           2             5    7     1       0.3647299237E-03       5    7    1         0.2049448481E-01      0.5889272400E-01
          0                 4           1             5    7     1      -0.1451294535E-04       5    7    1        -0.8382254816E-03      0.2408582729E-02

    ------------------------------------------------
       NWT REQUIRED            4 OUTER ITERATIONS 
       AND A TOTAL OF          7 INNER ITERATIONS.
    ------------------------------------------------

 NO OUTPUT CONTROL FOR STRESS PERIOD   22   TIME STEP    7
 
 SOLVING FOR HEAD 
                                                   Max.-Head-Change                         Max.-Flux-Residual
  Residual-Control   Outer-Iter.   Inner-Iter.     Column Row Layer    Maximum-Head-Change  Column Row Layer    Maximum-Flux-Residual          L2-NORM 
          0                 1           2             5    7     1       0.5381469000E-01       5    7    1         0.2861645508E+01      0.8180284232E+01
          0                 2           2             5    7     1      -0.5234670405E-02       5    7    1        -0.2861624148E+00      0.8179967859E+00
          0                 3           2             5    7     1       0.3564619991E-03       5    7    1         0.2003140015E-01      0.5725805638E-01
          0                 4           1             5    7     1      -0.1418395695E-04       5    7    1        -0.8192852958E-03      0.2341763932E-02

    ------------------------------------------------
       NWT REQUIRED            4 OUTER ITERATIONS 
       AND A TOTAL OF          7 INNER ITERATIONS.
    ------------------------------------------------

 NO OUTPUT CONTROL FOR STRESS PERIOD   22   TIME STEP    8
 
 SOLVING FOR HEAD 
                                                   Max.-Head-Change                         Max.-Flux-Residual
  Residual-Control   Outer-Iter.   Inner-Iter.     Column Row Layer    Maximum-Head-Change  Column Row Layer    Maximum-Flux-Residual          L2-NORM 
          0                 1           2             5    7     1       0.5259199625E-01       5    7    1         0.2796778957E+01      0.7958028546E+01
          0                 2           2             5    7     1      -0.5115740605E-02       5    7    1        -0.2796760944E+00      0.7957743457E+00
          0                 3           2             5    7     1       0.3483632722E-03       5    7    1         0.1957735437E-01      0.5570248761E-01
          0                 4           1             5    7     1      -0.1386170144E-04       5    7    1        -0.8007148156E-03      0.2278017440E-02

    ------------------------------------------------
       NWT REQUIRED            4 OUTER ITERATIONS 
       AND A TOTAL OF          7 INNER ITERATIONS.
    ------------------------------------------------

 NO OUTPUT CONTROL FOR STRESS PERIOD   22   TIME STEP    9
 
 SOLVING FOR HEAD 
                                                   Max.-Head-Change                         Max.-Flux-Residual
  Residual-Control   Outer-Iter.   Inner-Iter.     Column Row Layer    Maximum-Head-Change  Column Row Layer    Maximum-Flux-Residual          L2-NORM 
          0                 1           2             4    7     1       0.5176576461E-01       5    7    1         0.2733228992E+01      0.7746345424E+01
          0                 2           2             4    7     1      -0.5035392306E-02       5    7    1        -0.2733213908E+00      0.7746088380E+00
          0                 3           2             4    7     1       0.3428916411E-03       5    7    1         0.1913252215E-01      0.5422121710E-01
          0                 4           1             4    7     1      -0.1364397869E-04       5    7    1        -0.7825211740E-03      0.2217584397E-02

    ------------------------------------------------
       NWT REQUIRED            4 OUTER ITERATIONS 
       AND A TOTAL OF          7 INNER ITERATIONS.
    ------------------------------------------------

 NO OUTPUT CONTROL FOR STRESS PERIOD   22   TIME STEP   10
 
 SOLVING FOR HEAD 
                                                   Max.-Head-Change                         Max.-Flux-Residual
  Residual-Control   Outer-Iter.   Inner-Iter.     Column Row Layer    Maximum-Head-Change  Column Row Layer    Maximum-Flux-Residual          L2-NORM 
          0                 1           2             4    7     1       0.5131244278E-01       4    7    1         0.2689601224E+01      0.7544534218E+01
          0                 2           2             4    7     1      -0.4991300585E-02       4    7    1        -0.2689600934E+00      0.7544302129E+00
          0                 3           2             4    7     1       0.3398891178E-03       4    7    1         0.1882721720E-01      0.5280907822E-01
          0                 4           1             4    7     1      -0.1352450537E-04       4    7    1        -0.7700342378E-03      0.2160116389E-02

    ------------------------------------------------
       NWT REQUIRED            4 OUTER ITERATIONS 
       AND A TOTAL OF          7 INNER ITERATIONS.
    ------------------------------------------------

 NO OUTPUT CONTROL FOR STRESS PERIOD   22   TIME STEP   11
 
 SOLVING FOR HEAD 
                                                   Max.-Head-Change                         Max.-Flux-Residual
  Residual-Control   Outer-Iter.   Inner-Iter.     Column Row Layer    Maximum-Head-Change  Column Row Layer    Maximum-Flux-Residual          L2-NORM 
          0                 1           2             4    7     1       0.5083392773E-01       4    7    1         0.2666046528E+01      0.7351939093E+01
          0                 2           2             4    7     1      -0.4944757788E-02       4    7    1        -0.2666048660E+00      0.7351729618E+00
          0                 3           2             4    7     1       0.3367196902E-03       4    7    1         0.1866234892E-01      0.5146096338E-01
          0                 4           1             4    7     1      -0.1339839125E-04       4    7    1        -0.7632911290E-03      0.2104683965E-02

    ------------------------------------------------
       NWT REQUIRED            4 OUTER ITERATIONS 
       AND A TOTAL OF          7 INNER ITERATIONS.
    ------------------------------------------------

 NO OUTPUT CONTROL FOR STRESS PERIOD   22   TIME STEP   12
 
 SOLVING FOR HEAD 
                                                   Max.-Head-Change                         Max.-Flux-Residual
  Residual-Control   Outer-Iter.   Inner-Iter.     Column Row Layer    Maximum-Head-Change  Column Row Layer    Maximum-Flux-Residual          L2-NORM 
          0                 1           2             4    7     1       0.5033279354E-01       4    7    1         0.2641185589E+01      0.7167973183E+01
          0                 2           2             4    7     1      -0.4896014345E-02       4    7    1        -0.2641189864E+00      0.7167783549E+00
          0                 3           2             4    7     1       0.3334004104E-03       4    7    1         0.1848833523E-01      0.5017296585E-01
          0                 4           1             4    7     1      -0.1326631388E-04       4    7    1        -0.7561739669E-03      0.2052137253E-02

    ------------------------------------------------
       NWT REQUIRED            4 OUTER ITERATIONS 
       AND A TOTAL OF          7 INNER ITERATIONS.
    ------------------------------------------------

 NO OUTPUT CONTROL FOR STRESS PERIOD   22   TIME STEP   13
 
 SOLVING FOR HEAD 
                                                   Max.-Head-Change                         Max.-Flux-Residual
  Residual-Control   Outer-Iter.   Inner-Iter.     Column Row Layer    Maximum-Head-Change  Column Row Layer    Maximum-Flux-Residual          L2-NORM 
          0                 1           2             4    7     1       0.4981145555E-01       4    7    1         0.2615151868E+01      0.6992081445E+01
          0                 2           2             4    7     1      -0.4845305240E-02       4    7    1        -0.2615158033E+00      0.6991909649E+00
          0                 3           2             4    7     1       0.3299472805E-03       4    7    1         0.1830611055E-01      0.4894241614E-01
          0                 4           1             4    7     1      -0.1312891104E-04       4    7    1        -0.7487209834E-03      0.2001683199E-02

    ------------------------------------------------
       NWT REQUIRED            4 OUTER ITERATIONS 
       AND A TOTAL OF          7 INNER ITERATIONS.
    ------------------------------------------------

 NO OUTPUT CONTROL FOR STRESS PERIOD   22   TIME STEP   14
 
 SOLVING FOR HEAD 
                                                   Max.-Head-Change                         Max.-Flux-Residual
  Residual-Control   Outer-Iter.   Inner-Iter.     Column Row Layer    Maximum-Head-Change  Column Row Layer    Maximum-Flux-Residual          L2-NORM 
          0                 1           2             4    7     1       0.4927203831E-01       4    7    1         0.2588063353E+01      0.6823758025E+01
          0                 2           2             4    7     1      -0.4792837173E-02       4    7    1        -0.2588071179E+00      0.6823602339E+00
          0                 3           2             4    7     1       0.3263743751E-03       4    7    1         0.1811650093E-01      0.4776432337E-01
          0                 4           1             4    7     1      -0.1298674181E-04       4    7    1        -0.7409659468E-03      0.1953435760E-02

    ------------------------------------------------
       NWT REQUIRED            4 OUTER ITERATIONS 
       AND A TOTAL OF          7 INNER ITERATIONS.
    ------------------------------------------------

 NO OUTPUT CONTROL FOR STRESS PERIOD   22   TIME STEP   15
 
 SOLVING FOR HEAD 
                                                   Max.-Head-Change                         Max.-Flux-Residual
  Residual-Control   Outer-Iter.   Inner-Iter.     Column Row Layer    Maximum-Head-Change  Column Row Layer    Maximum-Flux-Residual          L2-NORM 
          0                 1           2             4    7     1       0.4871666221E-01       4    7    1         0.2560037442E+01      0.6662540398E+01
          0                 2           2             4    7     1      -0.4738816429E-02       4    7    1        -0.2560046720E+00      0.6662399727E+00
          0                 3           2             4    7     1       0.3226957411E-03       4    7    1         0.1792032826E-01      0.4663609644E-01
          0                 4           1             4    7     1      -0.1284036570E-04       4    7    1        -0.7329424802E-03      0.1907377794E-02

    ------------------------------------------------
       NWT REQUIRED            4 OUTER ITERATIONS 
       AND A TOTAL OF          7 INNER ITERATIONS.
    ------------------------------------------------

 NO OUTPUT CONTROL FOR STRESS PERIOD   22   TIME STEP   16
 
 SOLVING FOR HEAD 
                                                   Max.-Head-Change                         Max.-Flux-Residual
  Residual-Control   Outer-Iter.   Inner-Iter.     Column Row Layer    Maximum-Head-Change  Column Row Layer    Maximum-Flux-Residual          L2-NORM 
          0                 1           2             4    7     1       0.4814717173E-01       4    7    1         0.2531176828E+01      0.6507994249E+01
          0                 2           2             4    7     1      -0.4683422457E-02       4    7    1        -0.2531187370E+00      0.6507865702E+00
          0                 3           2             4    7     1       0.3189235980E-03       4    7    1         0.1771831152E-01      0.4555438338E-01
          0                 4           1             4    7     1      -0.1269026867E-04       4    7    1        -0.7246799819E-03      0.1863151507E-02

    ------------------------------------------------
       NWT REQUIRED            4 OUTER ITERATIONS 
       AND A TOTAL OF          7 INNER ITERATIONS.
    ------------------------------------------------

 NO OUTPUT CONTROL FOR STRESS PERIOD   22   TIME STEP   17
 
 SOLVING FOR HEAD 
                                                   Max.-Head-Change                         Max.-Flux-Residual
  Residual-Control   Outer-Iter.   Inner-Iter.     Column Row Layer    Maximum-Head-Change  Column Row Layer    Maximum-Flux-Residual          L2-NORM 
          0                 1           2             4    7     1       0.4756554840E-01       4    7    1         0.2501591633E+01      0.6359708757E+01
          0                 2           2             4    7     1      -0.4626848034E-02       4    7    1        -0.2501603268E+00      0.6359592194E+00
          0                 3           2             4    7     1       0.3150710732E-03       4    7    1         0.1751122168E-01      0.4451649393E-01
          0                 4           1             4    7     1      -0.1253697328E-04       4    7    1        -0.7162100057E-03      0.1820698239E-02

    ------------------------------------------------
       NWT REQUIRED            4 OUTER ITERATIONS 
       AND A TOTAL OF          7 INNER ITERATIONS.
    ------------------------------------------------

 NO OUTPUT CONTROL FOR STRESS PERIOD   22   TIME STEP   18
 
 SOLVING FOR HEAD 
                                                   Max.-Head-Change                         Max.-Flux-Residual
  Residual-Control   Outer-Iter.   Inner-Iter.     Column Row Layer    Maximum-Head-Change  Column Row Layer    Maximum-Flux-Residual          L2-NORM 
          0                 1           2             4    7     1       0.4697351301E-01       4    7    1         0.2471377354E+01      0.6217332846E+01
          0                 2           2             4    7     1      -0.4569260570E-02       4    7    1        -0.2471389929E+00      0.6217226488E+00
          0                 3           2             4    7     1       0.3111495665E-03       4    7    1         0.1729972734E-01      0.4351999928E-01
          0                 4           1             4    7     1      -0.1238093267E-04       4    7    1        -0.7075598669E-03      0.1779925431E-02

    ------------------------------------------------
       NWT REQUIRED            4 OUTER ITERATIONS 
       AND A TOTAL OF          7 INNER ITERATIONS.
    ------------------------------------------------

 NO OUTPUT CONTROL FOR STRESS PERIOD   22   TIME STEP   19
 
 SOLVING FOR HEAD 
                                                   Max.-Head-Change                         Max.-Flux-Residual
  Residual-Control   Outer-Iter.   Inner-Iter.     Column Row Layer    Maximum-Head-Change  Column Row Layer    Maximum-Flux-Residual          L2-NORM 
          0                 1           2             4    7     1       0.4637239904E-01       4    7    1         0.2440608716E+01      0.6080508437E+01
          0                 2           2             4    7     1      -0.4510789798E-02       4    7    1        -0.2440622091E+00      0.6080411475E+00
          0                 3           2             4    7     1       0.3071679114E-03       4    7    1         0.1708435161E-01      0.4256234447E-01
          0                 4           1             4    7     1      -0.1222249890E-04       4    7    1        -0.6987509923E-03      0.1740780725E-02

    ------------------------------------------------
       NWT REQUIRED            4 OUTER ITERATIONS 
       AND A TOTAL OF          7 INNER ITERATIONS.
    ------------------------------------------------

 NO OUTPUT CONTROL FOR STRESS PERIOD   22   TIME STEP   20
 
 SOLVING FOR HEAD 
                                                   Max.-Head-Change                         Max.-Flux-Residual
  Residual-Control   Outer-Iter.   Inner-Iter.     Column Row Layer    Maximum-Head-Change  Column Row Layer    Maximum-Flux-Residual          L2-NORM 
          0                 1           2             4    7     1       0.4576397266E-01       4    7    1         0.2409383844E+01      0.5948934655E+01
          0                 2           2             4    7     1      -0.4451607541E-02       4    7    1        -0.2409397895E+00      0.5948846192E+00
          0                 3           2             4    7     1       0.3031378093E-03       4    7    1         0.1686578151E-01      0.4164141146E-01
          0                 4           1             4    7     1      -0.1206213801E-04       4    7    1        -0.6898114793E-03      0.1703101772E-02

    ------------------------------------------------
       NWT REQUIRED            4 OUTER ITERATIONS 
       AND A TOTAL OF          7 INNER ITERATIONS.
    ------------------------------------------------

 NO OUTPUT CONTROL FOR STRESS PERIOD   22   TIME STEP   21
 
 SOLVING FOR HEAD 
                                                   Max.-Head-Change                         Max.-Flux-Residual
  Residual-Control   Outer-Iter.   Inner-Iter.     Column Row Layer    Maximum-Head-Change  Column Row Layer    Maximum-Flux-Residual          L2-NORM 
          0                 1           2             4    7     1       0.4514947926E-01       4    7    1         0.2377772573E+01      0.5822304512E+01
          0                 2           2             4    7     1      -0.4391834960E-02       4    7    1        -0.2377787187E+00      0.5822223430E+00
          0                 3           2             4    7     1       0.2990675097E-03       4    7    1         0.1664450593E-01      0.4075509826E-01
          0                 4           1             4    7     1      -0.1190017673E-04       4    7    1        -0.6807612951E-03      0.1666859710E-02

    ------------------------------------------------
       NWT REQUIRED            4 OUTER ITERATIONS 
       AND A TOTAL OF          7 INNER ITERATIONS.
    ------------------------------------------------

 NO OUTPUT CONTROL FOR STRESS PERIOD   22   TIME STEP   22
 
 SOLVING FOR HEAD 
                                                   Max.-Head-Change                         Max.-Flux-Residual
  Residual-Control   Outer-Iter.   Inner-Iter.     Column Row Layer    Maximum-Head-Change  Column Row Layer    Maximum-Flux-Residual          L2-NORM 
          0                 1           2             4    7     1       0.4453006693E-01       4    7    1         0.2345839471E+01      0.5700344499E+01
          0                 2           2             4    7     1      -0.4331583746E-02       4    7    1        -0.2345854547E+00      0.5700270278E+00
          0                 3           2             4    7     1       0.2949646180E-03       4    7    1         0.1642097690E-01      0.3990147113E-01
          0                 4           1             4    7     1      -0.1173691866E-04       4    7    1        -0.6716189409E-03      0.1631941753E-02

    ------------------------------------------------
       NWT REQUIRED            4 OUTER ITERATIONS 
       AND A TOTAL OF          7 INNER ITERATIONS.
    ------------------------------------------------

 NO OUTPUT CONTROL FOR STRESS PERIOD   22   TIME STEP   23
 
 SOLVING FOR HEAD 
                                                   Max.-Head-Change                         Max.-Flux-Residual
  Residual-Control   Outer-Iter.   Inner-Iter.     Column Row Layer    Maximum-Head-Change  Column Row Layer    Maximum-Flux-Residual          L2-NORM 
          0                 1           2             4    7     1       0.4390719810E-01       4    7    1         0.2313665812E+01      0.5582807671E+01
          0                 2           2             4    7     1      -0.4270996176E-02       4    7    1        -0.2313681260E+00      0.5582739626E+00
          0                 3           2             4    7     1       0.2908388236E-03       4    7    1         0.1619576345E-01      0.3907877573E-01
          0                 4           1             4    7     1      -0.1157274958E-04       4    7    1        -0.6624077100E-03      0.1598296358E-02

    ------------------------------------------------
       NWT REQUIRED            4 OUTER ITERATIONS 
       AND A TOTAL OF          7 INNER ITERATIONS.
    ------------------------------------------------

 NO OUTPUT CONTROL FOR STRESS PERIOD   22   TIME STEP   24
 
 SOLVING FOR HEAD 
                                                   Max.-Head-Change                         Max.-Flux-Residual
  Residual-Control   Outer-Iter.   Inner-Iter.     Column Row Layer    Maximum-Head-Change  Column Row Layer    Maximum-Flux-Residual          L2-NORM 
          0                 1           2             4    7     1       0.4328156353E-01       4    7    1         0.2281291175E+01      0.5469451158E+01
          0                 2           2             4    7     1      -0.4210139451E-02       4    7    1        -0.2281306913E+00      0.5469388534E+00
          0                 3           2             4    7     1       0.2866947021E-03       4    7    1         0.1596914266E-01      0.3828535578E-01
          0                 4           1             4    7     1      -0.1140785139E-04       4    7    1        -0.6531389147E-03      0.1565845322E-02

    ------------------------------------------------
       NWT REQUIRED            4 OUTER ITERATIONS 
       AND A TOTAL OF          7 INNER ITERATIONS.
    ------------------------------------------------

 NO OUTPUT CONTROL FOR STRESS PERIOD   22   TIME STEP   25
 
 SOLVING FOR HEAD 
                                                   Max.-Head-Change                         Max.-Flux-Residual
  Residual-Control   Outer-Iter.   Inner-Iter.     Column Row Layer    Maximum-Head-Change  Column Row Layer    Maximum-Flux-Residual          L2-NORM 
          0                 1           2             4    7     1       0.4265458911E-01       4    7    1         0.2248794874E+01      0.5360060930E+01
          0                 2           2             4    7     1      -0.4149152287E-02       4    7    1        -0.2248810830E+00      0.5360003069E+00
          0                 3           2             4    7     1       0.2825416988E-03       4    7    1         0.1574166977E-01      0.3751966631E-01
          0                 4           1             4    7     1      -0.1124259965E-04       4    7    1        -0.6438352648E-03      0.1534546175E-02

    ------------------------------------------------
       NWT REQUIRED            4 OUTER ITERATIONS 
       AND A TOTAL OF          7 INNER ITERATIONS.
    ------------------------------------------------

 NO OUTPUT CONTROL FOR STRESS PERIOD   22   TIME STEP   26
 
 SOLVING FOR HEAD 
                                                   Max.-Head-Change                         Max.-Flux-Residual
  Residual-Control   Outer-Iter.   Inner-Iter.     Column Row Layer    Maximum-Head-Change  Column Row Layer    Maximum-Flux-Residual          L2-NORM 
          0                 1           2             4    7     1       0.4202693716E-01       4    7    1         0.2216214587E+01      0.5254430496E+01
          0                 2           2             4    7     1      -0.4088099120E-02       4    7    1        -0.2216230696E+00      0.5254377321E+00
          0                 3           2             4    7     1       0.2783842018E-03       4    7    1         0.1551360859E-01      0.3678032731E-01
          0                 4           1             4    7     1      -0.1107716866E-04       4    7    1        -0.6345075344E-03      0.1504297000E-02

    ------------------------------------------------
       NWT REQUIRED            4 OUTER ITERATIONS 
       AND A TOTAL OF          7 INNER ITERATIONS.
    ------------------------------------------------

 NO OUTPUT CONTROL FOR STRESS PERIOD   22   TIME STEP   27
 
 SOLVING FOR HEAD 
                                                   Max.-Head-Change                         Max.-Flux-Residual
  Residual-Control   Outer-Iter.   Inner-Iter.     Column Row Layer    Maximum-Head-Change  Column Row Layer    Maximum-Flux-Residual          L2-NORM 
          0                 1           2             4    7     1       0.4139960513E-01       4    7    1         0.2183606409E+01      0.5152365495E+01
          0                 2           2             4    7     1      -0.4027076986E-02       4    7    1        -0.2183622614E+00      0.5152316138E+00
          0                 3           2             4    7     1       0.2742288188E-03       4    7    1         0.1528535181E-01      0.3606580830E-01
          0                 4           1             4    7     1      -0.1091182194E-04       4    7    1        -0.6251718064E-03      0.1475049239E-02

    ------------------------------------------------
       NWT REQUIRED            4 OUTER ITERATIONS 
       AND A TOTAL OF          7 INNER ITERATIONS.
    ------------------------------------------------

 NO OUTPUT CONTROL FOR STRESS PERIOD   22   TIME STEP   28
 
 SOLVING FOR HEAD 
                                                   Max.-Head-Change                         Max.-Flux-Residual
  Residual-Control   Outer-Iter.   Inner-Iter.     Column Row Layer    Maximum-Head-Change  Column Row Layer    Maximum-Flux-Residual          L2-NORM 
          0                 1           2             4    7     1       0.4077337893E-01       4    7    1         0.2151014805E+01      0.5053697578E+01
          0                 2           2             4    7     1      -0.3966162341E-02       4    7    1        -0.2151031054E+00      0.5053651863E+00
          0                 3           2             4    7     1       0.2700807566E-03       4    7    1         0.1505721077E-01      0.3537528156E-01
          0                 4           1             4    7     1      -0.1074676672E-04       4    7    1        -0.6158408330E-03      0.1446832337E-02

    ------------------------------------------------
       NWT REQUIRED            4 OUTER ITERATIONS 
       AND A TOTAL OF          7 INNER ITERATIONS.
    ------------------------------------------------

 NO OUTPUT CONTROL FOR STRESS PERIOD   22   TIME STEP   29
 
 SOLVING FOR HEAD 
                                                   Max.-Head-Change                         Max.-Flux-Residual
  Residual-Control   Outer-Iter.   Inner-Iter.     Column Row Layer    Maximum-Head-Change  Column Row Layer    Maximum-Flux-Residual          L2-NORM 
          0                 1           2             4    7     1       0.4014884559E-01       4    7    1         0.2118473270E+01      0.4959721242E+01
          0                 2           2             4    7     1      -0.3905412299E-02       4    7    1        -0.2118489518E+00      0.4959663896E+00
          0                 3           2             4    7     1       0.2659439037E-03       4    7    1         0.1482941990E-01      0.3471723204E-01
          0                 4           1             4    7     1      -0.1058215751E-04       4    7    1        -0.6065241773E-03      0.1419916836E-02

    ------------------------------------------------
       NWT REQUIRED            4 OUTER ITERATIONS 
       AND A TOTAL OF          7 INNER ITERATIONS.
    ------------------------------------------------

 NO OUTPUT CONTROL FOR STRESS PERIOD   22   TIME STEP   30



 STREAM LISTING     PERIOD     22   STEP       30

 LAYER ROW COL. STREAM  RCH.  FLOW INTO     FLOW TO   FLOW OUT OF   OVRLND.     DIRECT     STREAM       STREAM     STREAM     STREAM   STREAMBED  STREAMBED
                SEG.NO.  NO.  STRM. RCH.    AQUIFER    STRM. RCH.    RUNOFF     PRECIP       ET          HEAD       DEPTH      WIDTH   CONDCTNC.   GRADIENT

   1    1    1     1     1    1.8324E+01  2.0985E-01   1.8114E+01  0.000E+00  0.000E+00  0.000E+00  1.09412E+03  1.071E+00  1.146E+01  5.155E-02  1.357E+00
   1    2    2     1     2    1.8114E+01  3.2368E-01   1.7790E+01  0.000E+00  0.000E+00  0.000E+00  1.08912E+03  1.066E+00  1.137E+01  7.960E-02  1.355E+00
   1    3    3     1     3    1.7790E+01  2.7478E-01   1.7515E+01  0.000E+00  0.000E+00  0.000E+00  1.08348E+03  1.061E+00  1.128E+01  6.766E-02  1.354E+00
   1    3    4     1     4    1.7515E+01  2.5199E-01   1.7263E+01  0.000E+00  0.000E+00  0.000E+00  1.07846E+03  1.056E+00  1.119E+01  6.212E-02  1.352E+00
   1    4    5     2     1    1.5263E+01  3.0363E-01   1.4960E+01  0.000E+00  0.000E+00  0.000E+00  1.07283E+03  8.927E-01  1.200E+01  7.800E-02  1.298E+00
   1    5    6     2     2    1.4960E+01  2.3299E-01   1.4727E+01  0.000E+00  0.000E+00  0.000E+00  1.06739E+03  8.832E-01  1.200E+01  6.000E-02  1.294E+00
   1    6    6     2     3    1.4727E+01  2.3249E-01   1.4494E+01  0.000E+00  0.000E+00  0.000E+00  1.06267E+03  8.749E-01  1.200E+01  6.000E-02  1.292E+00
   1    7    6     2     4    1.4494E+01  2.3199E-01   1.4262E+01  0.000E+00  0.000E+00  0.000E+00  1.05794E+03  8.665E-01  1.200E+01  6.000E-02  1.289E+00
   1    8    6     2     5    1.4262E+01  2.3149E-01   1.4031E+01  0.000E+00  0.000E+00  0.000E+00  1.05322E+03  8.581E-01  1.200E+01  6.000E-02  1.286E+00
   1    3    5     3     1    2.0000E+00  2.8252E-01   1.7175E+00  0.000E+00  0.000E+00  0.000E+00  1.07555E+03  1.909E+00  9.636E+00  7.227E-02  1.955E+00
   1    3    6     3     2    1.7175E+00  2.4905E-01   1.4684E+00  0.000E+00  0.000E+00  0.000E+00  1.07264E+03  1.727E+00  8.909E+00  6.682E-02  1.864E+00
   1    3    7     3     3    1.4684E+00  1.9718E-01   1.2712E+00  0.000E+00  0.000E+00  0.000E+00  1.06987E+03  1.555E+00  8.218E+00  5.547E-02  1.777E+00
   1    4    8     3     4    1.2712E+00  2.2567E-01   1.0456E+00  0.000E+00  0.000E+00  0.000E+00  1.06682E+03  1.364E+00  7.455E+00  6.709E-02  1.682E+00
   1    5    8     3     5    1.0456E+00  1.5790E-01   8.8768E-01  0.000E+00  0.000E+00  0.000E+00  1.06362E+03  1.164E+00  6.655E+00  4.991E-02  1.582E+00
   1    6    8     3     6    8.8768E-01  5.5980E-02   8.3170E-01  0.000E+00  0.000E+00  0.000E+00  1.06158E+03  1.036E+00  6.145E+00  1.844E-02  1.518E+00
   1    5   10     4     1    1.0000E+01  9.0919E-02   9.9091E+00  0.000E+00  0.000E+00  0.000E+00  1.07836E+03  6.368E-01  1.000E+01  2.500E-02  1.212E+00
   1    5    9     4     2    9.9091E+00  1.8158E-01   9.7275E+00  0.000E+00  0.000E+00  0.000E+00  1.07154E+03  6.315E-01  1.000E+01  5.000E-02  1.211E+00
   1    6    8     4     3    9.7275E+00  1.2689E-01   9.6006E+00  0.000E+00  0.000E+00  0.000E+00  1.06381E+03  6.256E-01  1.000E+01  3.500E-02  1.209E+00
   1    6    8     5     1    1.0432E+01  2.2686E-01   1.0205E+01  0.000E+00  0.000E+00  0.000E+00  1.05868E+03  6.790E-01  1.542E+01  6.166E-02  1.226E+00
   1    7    7     5     2    1.0205E+01  2.7894E-01   9.9265E+00  0.000E+00  0.000E+00  0.000E+00  1.05417E+03  6.732E-01  1.519E+01  7.594E-02  1.224E+00
   1    8    7     5     3    9.9265E+00  1.9221E-01   9.7343E+00  0.000E+00  0.000E+00  0.000E+00  1.04992E+03  6.676E-01  1.497E+01  5.241E-02  1.223E+00
   1    8    6     5     4    9.7343E+00  1.3577E-01   9.5985E+00  0.000E+00  0.000E+00  0.000E+00  1.04691E+03  6.637E-01  1.482E+01  3.706E-02  1.221E+00
   1    9    6     6     1    2.3629E+01  2.5060E-01   2.3379E+01  0.000E+00  0.000E+00  0.000E+00  1.04390E+03  1.177E+00  1.200E+01  6.000E-02  1.392E+00
   1   10    7     6     2    2.3379E+01  2.5015E-01   2.3128E+01  0.000E+00  0.000E+00  0.000E+00  1.03935E+03  1.169E+00  1.200E+01  6.000E-02  1.390E+00
   1   11    7     6     3    2.3128E+01  2.4969E-01   2.2879E+01  0.000E+00  0.000E+00  0.000E+00  1.03480E+03  1.162E+00  1.200E+01  6.000E-02  1.387E+00
   1   12    7     6     4    2.2879E+01  2.4924E-01   2.2629E+01  0.000E+00  0.000E+00  0.000E+00  1.03024E+03  1.154E+00  1.200E+01  6.000E-02  1.385E+00
   1   13    7     6     5    2.2629E+01  1.8031E-03   2.2628E+01  0.000E+00  0.000E+00  0.000E+00  1.02706E+03  1.150E+00  1.200E+01  2.400E-02  2.504E-02
   1   14    9     7     1    1.5000E+02  1.3399E+00   1.4866E+02  0.000E+00  0.000E+00  0.000E+00  1.03987E+03  2.288E+00  5.529E+01  5.593E-01  7.986E-01
   1   13    8     7     2    1.4866E+02  1.8569E+00   1.4680E+02  0.000E+00  0.000E+00  0.000E+00  1.03478E+03  2.279E+00  5.526E+01  6.148E-01  1.007E+00
   1   13    7     7     3    1.4680E+02  1.5108E+00   1.4529E+02  0.000E+00  0.000E+00  0.000E+00  1.02969E+03  2.270E+00  5.522E+01  5.584E-01  9.018E-01
   1   13    6     8     1    1.6792E+02  9.5051E-01   1.6697E+02  0.000E+00  0.000E+00  0.000E+00  1.02481E+03  2.935E+00  4.256E+01  4.337E-01  7.305E-01
   1   13    5     8     2    1.6697E+02  2.0637E-01   1.6676E+02  0.000E+00  0.000E+00  0.000E+00  1.01856E+03  2.932E+00  4.251E+01  4.332E-01  1.588E-01
   1   13    4     8     3    1.6676E+02 -2.3311E+00   1.6909E+02  0.000E+00  0.000E+00  0.000E+00  1.01231E+03  2.939E+00  4.261E+01  4.342E+00 -1.789E-01
   1   13    3     8     4    1.6909E+02 -3.6179E+00   1.7271E+02  0.000E+00  0.000E+00  0.000E+00  1.00608E+03  2.958E+00  4.289E+01  4.371E+00 -2.759E-01
   1   13    2     8     5    1.7271E+02 -2.5975E+00   1.7531E+02  0.000E+00  0.000E+00  0.000E+00  9.99853E+02  2.978E+00  4.318E+01  4.400E+00 -1.968E-01
   1   13    1     8     6    1.7531E+02 -2.0161E+00   1.7733E+02  0.000E+00  0.000E+00  0.000E+00  9.94868E+02  2.993E+00  4.340E+01  2.653E+00 -2.533E-01
   1    8    6     9     1    0.0000E+00  0.0000E+00   0.0000E+00  0.000E+00  0.000E+00  0.000E+00  1.07875E+03  0.000E+00  4.000E+00  0.000E+00  1.000E+00
   1    8    5     9     2    0.0000E+00  0.0000E+00   0.0000E+00  0.000E+00  0.000E+00  0.000E+00  1.07825E+03  0.000E+00  4.000E+00  0.000E+00  1.000E+00





UNSATURATED ZONE PACKAGE VOLUMETRIC BUDGET FOR  TIME STEP    30 STRESS PERIOD   22
  ------------------------------------------------------------------------------



     CUMULATIVE VOLUMES      L**3       RATES FOR THIS TIME STEP      L**3/T
     ------------------                 ------------------------

           IN:                                      IN:
           ---                                      ---
        INFILTRATION =   854659363.3325          INFILTRATION =          12.0675

          OUT:                                     OUT:
          ----                                     ----
              UZF ET =   853913895.7883                UZF ET =          12.0675
        UZF RECHARGE =       73224.0000          UZF RECHARGE =       0.0000E+00

            IN - OUT =      672243.5441              IN - OUT =       0.0000E+00

          STORAGE:                                 STORAGE:
          --------                                 --------
      STORAGE CHANGE =      672243.4909        STORAGE CHANGE =       2.7389E-15

 PERCENT DISCREPANCY IS DIFFERENCE BETWEEN IN-OUT MINUS CHANGE IN STORAGE
 DIVIDED BY THE AVERAGE OF IN AND OUT TIMES 100

 PERCENT DISCREPANCY =           0.00     PERCENT DISCREPANCY =           0.00






1
  VOLUMETRIC BUDGET FOR AGRICULTURAL FIELDS AT  END OF TIME STEP   30, STRESS PERIOD  22
  ------------------------------------------------------------------------------

     CUMULATIVE VOLUMES      L**3       RATES FOR THIS TIME STEP      L**3/T
     ------------------                 ------------------------

           IN:                                      IN:
           ---                                      ---
               AG WELLS  =   807776960.0000                 AG WELLS  =          11.2200
      DIVERSION SEGMENTS =           0.0000        DIVERSION SEGMENTS =           0.0000
       IRRIGATION PONDS  =           0.0000         IRRIGATION PONDS  =           0.0000
           GW IRRIGATION =           0.0000             GW IRRIGATION =           0.0000
           SW IRRIGATION =           0.0000             SW IRRIGATION =           0.0000
        SYSTEM LOSSES GW =           0.0000          SYSTEM LOSSES GW =           0.0000
        SYSTEM LOSSES SW =           0.0000          SYSTEM LOSSES SW =           0.0000

                TOTAL IN =   807776960.0000                  TOTAL IN =          11.2200

          OUT:                                     OUT:
          ----                                     ----
               AG WELLS  =           0.0000                 AG WELLS  =           0.0000
      DIVERSION SEGMENTS =           0.0000        DIVERSION SEGMENTS =           0.0000
       IRRIGATION PONDS  =           0.0000         IRRIGATION PONDS  =           0.0000
           GW IRRIGATION =   807776960.0000             GW IRRIGATION =          11.2200
           SW IRRIGATION =           0.0000             SW IRRIGATION =           0.0000
        SYSTEM LOSSES GW =           0.0000          SYSTEM LOSSES GW =           0.0000
        SYSTEM LOSSES SW =           0.0000          SYSTEM LOSSES SW =           0.0000

               TOTAL OUT =   807776960.0000                 TOTAL OUT =          11.2200

                IN - OUT =           0.0000                  IN - OUT =           0.0000

     PERCENT DISCREPANCY =           0.00         PERCENT DISCREPANCY =           0.00



1
  VOLUMETRIC BUDGET FOR ENTIRE MODEL AT END OF TIME STEP   30, STRESS PERIOD  22
  ------------------------------------------------------------------------------

     CUMULATIVE VOLUMES      L**3       RATES FOR THIS TIME STEP      L**3/T
     ------------------                 ------------------------

           IN:                                      IN:
           ---                                      ---
             STORAGE     =  1000352512.0000               STORAGE     =          19.9135
       CONSTANT HEAD     =           0.0000         CONSTANT HEAD     =           0.0000
     HEAD DEP BOUNDS     =    15806655.0000       HEAD DEP BOUNDS     =           0.2860
      STREAM LEAKAGE     =   672362624.0000        STREAM LEAKAGE     =          11.5604
        UZF RECHARGE     =       73223.9531          UZF RECHARGE     =           0.0000
               GW ET     =           0.0000                 GW ET     =           0.0000
     SURFACE LEAKAGE     =           0.0000       SURFACE LEAKAGE     =           0.0000
           AG WELLS      =           0.0000             AG WELLS      =           0.0000

                TOTAL IN =  1688594944.0000                  TOTAL IN =          31.7599

          OUT:                                     OUT:
          ----                                     ----
             STORAGE     =   276115552.0000               STORAGE     =           9.6874
       CONSTANT HEAD     =           0.0000         CONSTANT HEAD     =           0.0000
     HEAD DEP BOUNDS     =    16183966.0000       HEAD DEP BOUNDS     =           0.2899
      STREAM LEAKAGE     =   581207232.0000        STREAM LEAKAGE     =          10.5626
        UZF RECHARGE     =           0.0000          UZF RECHARGE     =           0.0000
               GW ET     =     7311766.5000                 GW ET     =           0.0000
     SURFACE LEAKAGE     =           0.0000       SURFACE LEAKAGE     =           0.0000
           AG WELLS      =   807776960.0000             AG WELLS      =          11.2200

               TOTAL OUT =  1688595456.0000                 TOTAL OUT =          31.7599

                IN - OUT =        -512.0000                  IN - OUT =      -3.0518E-05

     PERCENT DISCREPANCY =          -0.00         PERCENT DISCREPANCY =          -0.00






         TIME SUMMARY AT END OF TIME STEP   30 IN STRESS PERIOD   22
                    SECONDS     MINUTES      HOURS       DAYS        YEARS
                    -----------------------------------------------------------
   TIME STEP LENGTH  87667.      1461.1      24.352      1.0147     2.77799E-03
 STRESS PERIOD TIME 2.63000E+06  43833.      730.56      30.440     8.33397E-02
         TOTAL TIME 5.53166E+07 9.21944E+05  15366.      640.24      1.7529    
1
1
                            STRESS PERIOD NO.   23, LENGTH =   2630000.    
                            -----------------------------------------------

                              NUMBER OF TIME STEPS =    30

                               MULTIPLIER FOR DELT =     1.000

                            INITIAL TIME STEP SIZE =   87666.66    

 REUSING NON-PARAMETER GHB CELLS FROM LAST STRESS PERIOD

      2 GHB CELLS

 REUSING STREAM SEGMENT DATA FROM LAST STRESS PERIOD



            AREAL INFILTRATION RATE
 READING ON UNIT   19 WITH FORMAT: (FREE)              

            1           2           3           4           5           6           7           8           9          10
 ........................................................................................................................
   1   1.0000E-10  2.0000E-10   0.000       0.000       0.000       0.000       0.000       0.000       0.000       0.000    
   2   2.0000E-10  1.0000E-10  2.0000E-10   0.000       0.000      8.0000E-10  8.0000E-10  5.0000E-10   0.000       0.000    
   3    0.000      5.0000E-10  1.0000E-10  1.0000E-10  8.0000E-10  8.0000E-10  5.0000E-10  5.0000E-10   0.000       0.000    
   4   8.0000E-10  5.0000E-10  1.0000E-10  1.0000E-10  1.0000E-10  1.0000E-10  1.0000E-10  1.0000E-10  2.0000E-10   0.000    
   5   8.0000E-10  5.0000E-10  1.0000E-10  1.0000E-10  1.0000E-10  1.0000E-10  1.0000E-10  1.0000E-10  1.0000E-10  1.0000E-10
   6   8.0000E-10  5.0000E-10  5.0000E-10  2.0000E-10  2.0000E-10  1.0000E-10  1.0000E-10  1.0000E-10  1.0000E-10  5.0000E-10
   7   8.0000E-10  5.0000E-10  5.0000E-10  2.0000E-10  2.0000E-10  1.0000E-10  1.0000E-10  2.0000E-10  2.0000E-10   0.000    
   8    0.000      5.0000E-10  5.0000E-10  2.0000E-10  2.0000E-10  1.0000E-10  1.0000E-10  2.0000E-10  5.0000E-10   0.000    
   9    0.000      5.0000E-10  5.0000E-10  2.0000E-10  2.0000E-10  1.0000E-10  1.0000E-10  2.0000E-10  5.0000E-10   0.000    
  10    0.000      5.0000E-10  5.0000E-10  2.0000E-10  2.0000E-10  1.0000E-10  1.0000E-10  2.0000E-10  5.0000E-10  8.0000E-10
  11    0.000      1.0000E-10  1.0000E-10  1.0000E-10  1.0000E-10  1.0000E-10  1.0000E-10  2.0000E-10  5.0000E-10   0.000    
  12   1.0000E-10  1.0000E-10  1.0000E-10  1.0000E-10  1.0000E-10  1.0000E-10  1.0000E-10  1.0000E-10  2.0000E-10   0.000    
  13   1.0000E-10  1.0000E-10  2.0000E-10  2.0000E-10  2.0000E-10  2.0000E-10  2.0000E-10  1.0000E-10  1.0000E-10   0.000    
  14    0.000      2.0000E-10  5.0000E-10  5.0000E-10  5.0000E-10  5.0000E-10  5.0000E-10  2.0000E-10  1.0000E-10   0.000    
  15    0.000       0.000      8.0000E-10  8.0000E-10  8.0000E-10  8.0000E-10   0.000       0.000       0.000       0.000    

                  ET RATE =  5.000000E-09

 USING ET EXTINCTION DEPTH FROM PREVIOUS STRESS PERIOD. CURRENT PERIOD IS:      23

 USING EXTINCTION WATER CONTENT FROM PREVIOUS STRESS PERIOD. CURRENT PERIOD IS:      23

 USING AIR ENTRY PRESSURE FROM PREVIOUS STRESS PERIOD. CURRENT PERIOD IS:      23

 USING ROOT PRESSURE HEAD FROM PREVIOUS STRESS PERIOD. CURRENT PERIOD IS:      23

 USING ROOT ACTIVITY FROM PREVIOUS STRESS PERIOD. CURRENT PERIOD IS:      23

 PROCESSING AG STRESS PERIOD DATA

 READING AG STRESS PERIOD DATA

 READING IRRIGATION SEGMENT

 READING IRRIGATION WELL

 READING SUPPLEMENTAL WELL

 NO IRRPOND OR REUSING IRRPOND DATA FROM LAST STRESS PERIOD

 END PROCESSING AG STRESS PERIOD DATA OPTIONS
 
 SOLVING FOR HEAD 
                                                   Max.-Head-Change                         Max.-Flux-Residual
  Residual-Control   Outer-Iter.   Inner-Iter.     Column Row Layer    Maximum-Head-Change  Column Row Layer    Maximum-Flux-Residual          L2-NORM 
          0                 1           2             4    7     1       0.7535002928E-01       4    7    1         0.3956026752E+01      0.8967973027E+01
          0                 2           2             4    7     1      -0.7329564218E-02       4    7    1        -0.3956068473E+00      0.8967895233E+00
          0                 3           2             4    7     1       0.4991155538E-03       4    7    1         0.2769245180E-01      0.6277462154E-01
          0                 4           1             4    7     1      -0.1986027747E-04       4    7    1        -0.1132623039E-02      0.2567447573E-02

    ------------------------------------------------
       NWT REQUIRED            4 OUTER ITERATIONS 
       AND A TOTAL OF          7 INNER ITERATIONS.
    ------------------------------------------------

 NO OUTPUT CONTROL FOR STRESS PERIOD   23   TIME STEP    1
 
 SOLVING FOR HEAD 
                                                   Max.-Head-Change                         Max.-Flux-Residual
  Residual-Control   Outer-Iter.   Inner-Iter.     Column Row Layer    Maximum-Head-Change  Column Row Layer    Maximum-Flux-Residual          L2-NORM 
          0                 1           2             4    7     1       0.7454797434E-01       4    7    1         0.3914991227E+01      0.8790296273E+01
          0                 2           2             4    7     1      -0.7251548207E-02       4    7    1        -0.3915034314E+00      0.8790229447E+00
          0                 3           2             4    7     1       0.4938029326E-03       4    7    1         0.2740521127E-01      0.6153102007E-01
          0                 4           1             4    7     1      -0.1964888339E-04       4    7    1        -0.1120874892E-02      0.2516574812E-02

    ------------------------------------------------
       NWT REQUIRED            4 OUTER ITERATIONS 
       AND A TOTAL OF          7 INNER ITERATIONS.
    ------------------------------------------------

 NO OUTPUT CONTROL FOR STRESS PERIOD   23   TIME STEP    2
 
 SOLVING FOR HEAD 
                                                   Max.-Head-Change                         Max.-Flux-Residual
  Residual-Control   Outer-Iter.   Inner-Iter.     Column Row Layer    Maximum-Head-Change  Column Row Layer    Maximum-Flux-Residual          L2-NORM 
          0                 1           2             4    7     1       0.7373534565E-01       4    7    1         0.3873312117E+01      0.8619383481E+01
          0                 2           2             4    7     1      -0.7172503300E-02       4    7    1        -0.3873356331E+00      0.8619326164E+00
          0                 3           2             4    7     1       0.4884202510E-03       4    7    1         0.2711346421E-01      0.6033476985E-01
          0                 4           1             4    7     1      -0.1943470185E-04       4    7    1        -0.1108942439E-02      0.2467670692E-02

    ------------------------------------------------
       NWT REQUIRED            4 OUTER ITERATIONS 
       AND A TOTAL OF          7 INNER ITERATIONS.
    ------------------------------------------------

 NO OUTPUT CONTROL FOR STRESS PERIOD   23   TIME STEP    3
 
 SOLVING FOR HEAD 
                                                   Max.-Head-Change                         Max.-Flux-Residual
  Residual-Control   Outer-Iter.   Inner-Iter.     Column Row Layer    Maximum-Head-Change  Column Row Layer    Maximum-Flux-Residual          L2-NORM 
          0                 1           2             4    7     1       0.7291399452E-01       4    7    1         0.3831091997E+01      0.8454829562E+01
          0                 2           2             4    7     1      -0.7092609616E-02       4    7    1        -0.3831137124E+00      0.8454859741E+00
          0                 3           2             4    7     1       0.4829797736E-03       4    7    1         0.2681792876E-01      0.5918352650E-01
          0                 4           1             4    7     1      -0.1921822017E-04       4    7    1        -0.1096855015E-02      0.2420578351E-02

    ------------------------------------------------
       NWT REQUIRED            4 OUTER ITERATIONS 
       AND A TOTAL OF          7 INNER ITERATIONS.
    ------------------------------------------------

 NO OUTPUT CONTROL FOR STRESS PERIOD   23   TIME STEP    4
 
 SOLVING FOR HEAD 
                                                   Max.-Head-Change                         Max.-Flux-Residual
  Residual-Control   Outer-Iter.   Inner-Iter.     Column Row Layer    Maximum-Head-Change  Column Row Layer    Maximum-Flux-Residual          L2-NORM 
          0                 1           2             4    7     1       0.7208552648E-01       4    7    1         0.3788419601E+01      0.8296253981E+01
          0                 2           2             4    7     1      -0.7012023355E-02       4    7    1        -0.3788465444E+00      0.8296212018E+00
          0                 3           2             4    7     1       0.4774921370E-03       4    7    1         0.2651922617E-01      0.5807303469E-01
          0                 4           1             4    7     1      -0.1899986179E-04       4    7    1        -0.1084638056E-02      0.2375153519E-02

    ------------------------------------------------
       NWT REQUIRED            4 OUTER ITERATIONS 
       AND A TOTAL OF          7 INNER ITERATIONS.
    ------------------------------------------------

 NO OUTPUT CONTROL FOR STRESS PERIOD   23   TIME STEP    5
 
 SOLVING FOR HEAD 
                                                   Max.-Head-Change                         Max.-Flux-Residual
  Residual-Control   Outer-Iter.   Inner-Iter.     Column Row Layer    Maximum-Head-Change  Column Row Layer    Maximum-Flux-Residual          L2-NORM 
          0                 1           2             4    7     1       0.7125143590E-01       4    7    1         0.3745378170E+01      0.8143292256E+01
          0                 2           2             4    7     1      -0.6929846611E-02       4    7    1        -0.3745782370E+00      0.8143279665E+00
          0                 3           2             4    7     1       0.4708812703E-03       4    7    1         0.2615469594E-01      0.5699833888E-01
          0                 4           1             4    7     1      -0.1873680927E-04       4    7    1        -0.1069728760E-02      0.2331211502E-02

    ------------------------------------------------
       NWT REQUIRED            4 OUTER ITERATIONS 
       AND A TOTAL OF          7 INNER ITERATIONS.
    ------------------------------------------------

 NO OUTPUT CONTROL FOR STRESS PERIOD   23   TIME STEP    6
 
 SOLVING FOR HEAD 
                                                   Max.-Head-Change                         Max.-Flux-Residual
  Residual-Control   Outer-Iter.   Inner-Iter.     Column Row Layer    Maximum-Head-Change  Column Row Layer    Maximum-Flux-Residual          L2-NORM 
          0                 1           2             4    7     1       0.7041298626E-01       4    7    1         0.3702037925E+01      0.7995643358E+01
          0                 2           2             4    7     1      -0.6865395589E-02       4    7    1        -0.3712187851E+00      0.7996313831E+00
          0                 3           2             4    7     1       0.4675072720E-03       4    7    1         0.2598527889E-01      0.5597384255E-01
          0                 4           1             4    7     1      -0.1860255518E-04       4    7    1        -0.1062799608E-02      0.2289342789E-02

    ------------------------------------------------
       NWT REQUIRED            4 OUTER ITERATIONS 
       AND A TOTAL OF          7 INNER ITERATIONS.
    ------------------------------------------------

 NO OUTPUT CONTROL FOR STRESS PERIOD   23   TIME STEP    7
 
 SOLVING FOR HEAD 
                                                   Max.-Head-Change                         Max.-Flux-Residual
  Residual-Control   Outer-Iter.   Inner-Iter.     Column Row Layer    Maximum-Head-Change  Column Row Layer    Maximum-Flux-Residual          L2-NORM 
          0                 1           2             4    7     1       0.6953819467E-01       4    7    1         0.3657622677E+01      0.7852926907E+01
          0                 2           2             4    7     1      -0.6764334665E-02       4    7    1        -0.3657671862E+00      0.7853182851E+00
          0                 3           2             4    7     1       0.4606254086E-03       4    7    1         0.2560366761E-01      0.5497190827E-01
          0                 4           1             4    7     1      -0.1832871923E-04       4    7    1        -0.1047191673E-02      0.2248330681E-02

    ------------------------------------------------
       NWT REQUIRED            4 OUTER ITERATIONS 
       AND A TOTAL OF          7 INNER ITERATIONS.
    ------------------------------------------------

 NO OUTPUT CONTROL FOR STRESS PERIOD   23   TIME STEP    8
 
 SOLVING FOR HEAD 
                                                   Max.-Head-Change                         Max.-Flux-Residual
  Residual-Control   Outer-Iter.   Inner-Iter.     Column Row Layer    Maximum-Head-Change  Column Row Layer    Maximum-Flux-Residual          L2-NORM 
          0                 1           2             4    7     1       0.6867838234E-01       4    7    1         0.3613015927E+01      0.7714908630E+01
          0                 2           2             4    7     1      -0.6680606189E-02       4    7    1        -0.3613065218E+00      0.7714888348E+00
          0                 3           2             4    7     1       0.4549238078E-03       4    7    1         0.2529142083E-01      0.5400388310E-01
          0                 4           1             4    7     1      -0.1810184728E-04       4    7    1        -0.1034420779E-02      0.2208734514E-02

    ------------------------------------------------
       NWT REQUIRED            4 OUTER ITERATIONS 
       AND A TOTAL OF          7 INNER ITERATIONS.
    ------------------------------------------------

 NO OUTPUT CONTROL FOR STRESS PERIOD   23   TIME STEP    9
 
 SOLVING FOR HEAD 
                                                   Max.-Head-Change                         Max.-Flux-Residual
  Residual-Control   Outer-Iter.   Inner-Iter.     Column Row Layer    Maximum-Head-Change  Column Row Layer    Maximum-Flux-Residual          L2-NORM 
          0                 1           2             4    7     1       0.6781872319E-01       4    7    1         0.3568354121E+01      0.7581343658E+01
          0                 2           2             4    7     1      -0.6596984785E-02       4    7    1        -0.3568403392E+00      0.7581327279E+00
          0                 3           2             4    7     1       0.4492294998E-03       4    7    1         0.2497878790E-01      0.5306897947E-01
          0                 4           1             4    7     1      -0.1787526534E-04       4    7    1        -0.1021634067E-02      0.2170501193E-02

    ------------------------------------------------
       NWT REQUIRED            4 OUTER ITERATIONS 
       AND A TOTAL OF          7 INNER ITERATIONS.
    ------------------------------------------------

 NO OUTPUT CONTROL FOR STRESS PERIOD   23   TIME STEP   10
 
 SOLVING FOR HEAD 
                                                   Max.-Head-Change                         Max.-Flux-Residual
  Residual-Control   Outer-Iter.   Inner-Iter.     Column Row Layer    Maximum-Head-Change  Column Row Layer    Maximum-Flux-Residual          L2-NORM 
          0                 1           2             4    7     1       0.6696002534E-01       4    7    1         0.3523688039E+01      0.7452015827E+01
          0                 2           2             4    7     1      -0.6513456727E-02       4    7    1        -0.3523737180E+00      0.7452002997E+00
          0                 3           2             4    7     1       0.4435415505E-03       4    7    1         0.2466612443E-01      0.5216374403E-01
          0                 4           1             4    7     1      -0.1764893634E-04       4    7    1        -0.1008846104E-02      0.2133474396E-02

    ------------------------------------------------
       NWT REQUIRED            4 OUTER ITERATIONS 
       AND A TOTAL OF          7 INNER ITERATIONS.
    ------------------------------------------------

 NO OUTPUT CONTROL FOR STRESS PERIOD   23   TIME STEP   11
 
 SOLVING FOR HEAD 
                                                   Max.-Head-Change                         Max.-Flux-Residual
  Residual-Control   Outer-Iter.   Inner-Iter.     Column Row Layer    Maximum-Head-Change  Column Row Layer    Maximum-Flux-Residual          L2-NORM 
          0                 1           2             4    7     1       0.6610338552E-01       4    7    1         0.3479079034E+01      0.7326716782E+01
          0                 2           2             4    7     1      -0.6430128713E-02       4    7    1        -0.3479127947E+00      0.7326706502E+00
          0                 3           2             4    7     1       0.4378672247E-03       4    7    1         0.2435385986E-01      0.5128666600E-01
          0                 4           1             4    7     1      -0.1742314993E-04       4    7    1        -0.9960744692E-03      0.2097604603E-02

    ------------------------------------------------
       NWT REQUIRED            4 OUTER ITERATIONS 
       AND A TOTAL OF          7 INNER ITERATIONS.
    ------------------------------------------------

 NO OUTPUT CONTROL FOR STRESS PERIOD   23   TIME STEP   12
 
 SOLVING FOR HEAD 
                                                   Max.-Head-Change                         Max.-Flux-Residual
  Residual-Control   Outer-Iter.   Inner-Iter.     Column Row Layer    Maximum-Head-Change  Column Row Layer    Maximum-Flux-Residual          L2-NORM 
          0                 1           2             4    7     1       0.6524940776E-01       4    7    1         0.3434562169E+01      0.7205214356E+01
          0                 2           2             4    7     1      -0.6347059514E-02       4    7    1        -0.3434610767E+00      0.7205206796E+00
          0                 3           2             4    7     1       0.4322105250E-03       4    7    1         0.2404223978E-01      0.5043619592E-01
          0                 4           1             4    7     1      -0.1719806442E-04       4    7    1        -0.9833291983E-03      0.2062831004E-02

    ------------------------------------------------
       NWT REQUIRED            4 OUTER ITERATIONS 
       AND A TOTAL OF          7 INNER ITERATIONS.
    ------------------------------------------------

 NO OUTPUT CONTROL FOR STRESS PERIOD   23   TIME STEP   13
 
 SOLVING FOR HEAD 
                                                   Max.-Head-Change                         Max.-Flux-Residual
  Residual-Control   Outer-Iter.   Inner-Iter.     Column Row Layer    Maximum-Head-Change  Column Row Layer    Maximum-Flux-Residual          L2-NORM 
          0                 1           2             4    7     1       0.6439917798E-01       4    7    1         0.3390197832E+01      0.7087349566E+01
          0                 2           2             4    7     1      -0.6264354776E-02       4    7    1        -0.3390246038E+00      0.7087345004E+00
          0                 3           2             4    7     1       0.4265786438E-03       4    7    1         0.2373168689E-01      0.4961116059E-01
          0                 4           1             4    7     1      -0.1697396613E-04       4    7    1        -0.9706275484E-03      0.2029087177E-02

    ------------------------------------------------
       NWT REQUIRED            4 OUTER ITERATIONS 
       AND A TOTAL OF          7 INNER ITERATIONS.
    ------------------------------------------------

 NO OUTPUT CONTROL FOR STRESS PERIOD   23   TIME STEP   14
 
 SOLVING FOR HEAD 
                                                   Max.-Head-Change                         Max.-Flux-Residual
  Residual-Control   Outer-Iter.   Inner-Iter.     Column Row Layer    Maximum-Head-Change  Column Row Layer    Maximum-Flux-Residual          L2-NORM 
          0                 1           2             4    7     1       0.6355329531E-01       4    7    1         0.3346020524E+01      0.6972935707E+01
          0                 2           2             4    7     1      -0.6182072791E-02       4    7    1        -0.3346068269E+00      0.6972932251E+00
          0                 3           2             4    7     1       0.4209755524E-03       4    7    1         0.2342244282E-01      0.4881028843E-01
          0                 4           1             4    7     1      -0.1675101416E-04       4    7    1        -0.9579794460E-03      0.1996329086E-02

    ------------------------------------------------
       NWT REQUIRED            4 OUTER ITERATIONS 
       AND A TOTAL OF          7 INNER ITERATIONS.
    ------------------------------------------------

 NO OUTPUT CONTROL FOR STRESS PERIOD   23   TIME STEP   15
 
 SOLVING FOR HEAD 
                                                   Max.-Head-Change                         Max.-Flux-Residual
  Residual-Control   Outer-Iter.   Inner-Iter.     Column Row Layer    Maximum-Head-Change  Column Row Layer    Maximum-Flux-Residual          L2-NORM 
          0                 1           2             4    7     1       0.6271257067E-01       4    7    1         0.3302075848E+01      0.6861814129E+01
          0                 2           2             4    7     1      -0.6100292454E-02       4    7    1        -0.3302123071E+00      0.6861812344E+00
          0                 3           2             4    7     1       0.4154066220E-03       4    7    1         0.2311482680E-01      0.4803246607E-01
          0                 4           1             4    7     1      -0.1652942116E-04       4    7    1        -0.9453979351E-03      0.1964516637E-02

    ------------------------------------------------
       NWT REQUIRED            4 OUTER ITERATIONS 
       AND A TOTAL OF          7 INNER ITERATIONS.
    ------------------------------------------------

 NO OUTPUT CONTROL FOR STRESS PERIOD   23   TIME STEP   16
 
 SOLVING FOR HEAD 
                                                   Max.-Head-Change                         Max.-Flux-Residual
  Residual-Control   Outer-Iter.   Inner-Iter.     Column Row Layer    Maximum-Head-Change  Column Row Layer    Maximum-Flux-Residual          L2-NORM 
          0                 1           2             4    7     1       0.6187747909E-01       4    7    1         0.3258391308E+01      0.6753828496E+01
          0                 2           2             4    7     1      -0.6019059980E-02       4    7    1        -0.3258437957E+00      0.6753828134E+00
          0                 3           2             4    7     1       0.4098750000E-03       4    7    1         0.2280903141E-01      0.4727658791E-01
          0                 4           1             4    7     1      -0.1630931273E-04       4    7    1        -0.9328908957E-03      0.1933603250E-02

    ------------------------------------------------
       NWT REQUIRED            4 OUTER ITERATIONS 
       AND A TOTAL OF          7 INNER ITERATIONS.
    ------------------------------------------------

 NO OUTPUT CONTROL FOR STRESS PERIOD   23   TIME STEP   17
 
 SOLVING FOR HEAD 
                                                   Max.-Head-Change                         Max.-Flux-Residual
  Residual-Control   Outer-Iter.   Inner-Iter.     Column Row Layer    Maximum-Head-Change  Column Row Layer    Maximum-Flux-Residual          L2-NORM 
          0                 1           2             4    7     1       0.6104870970E-01       4    7    1         0.3215006077E+01      0.6648843696E+01
          0                 2           2             4    7     1      -0.5938442416E-02       4    7    1        -0.3215052107E+00      0.6648844558E+00
          0                 3           2             4    7     1       0.4043852517E-03       4    7    1         0.2250533092E-01      0.4654170906E-01
          0                 4           1             4    7     1      -0.1609087066E-04       4    7    1        -0.9204695211E-03      0.1903545947E-02

    ------------------------------------------------
       NWT REQUIRED            4 OUTER ITERATIONS 
       AND A TOTAL OF          7 INNER ITERATIONS.
    ------------------------------------------------

 NO OUTPUT CONTROL FOR STRESS PERIOD   23   TIME STEP   18
 
 SOLVING FOR HEAD 
                                                   Max.-Head-Change                         Max.-Flux-Residual
  Residual-Control   Outer-Iter.   Inner-Iter.     Column Row Layer    Maximum-Head-Change  Column Row Layer    Maximum-Flux-Residual          L2-NORM 
          0                 1           2             4    7     1       0.6022662662E-01       4    7    1         0.3171941342E+01      0.6546717155E+01
          0                 2           2             4    7     1      -0.5858475188E-02       4    7    1        -0.3171986713E+00      0.6546719055E+00
          0                 3           2             4    7     1       0.3989397894E-03       4    7    1         0.2220387367E-01      0.4582684319E-01
          0                 4           1             4    7     1      -0.1587419038E-04       4    7    1        -0.9081398887E-03      0.1874301470E-02

    ------------------------------------------------
       NWT REQUIRED            4 OUTER ITERATIONS 
       AND A TOTAL OF          7 INNER ITERATIONS.
    ------------------------------------------------

 NO OUTPUT CONTROL FOR STRESS PERIOD   23   TIME STEP   19
 
 SOLVING FOR HEAD 
                                                   Max.-Head-Change                         Max.-Flux-Residual
  Residual-Control   Outer-Iter.   Inner-Iter.     Column Row Layer    Maximum-Head-Change  Column Row Layer    Maximum-Flux-Residual          L2-NORM 
          0                 1           2             4    7     1       0.5941182001E-01       4    7    1         0.3129230529E+01      0.6447339279E+01
          0                 2           2             4    7     1      -0.5779215711E-02       4    7    1        -0.3129275207E+00      0.6447343385E+00
          0                 3           2             4    7     1       0.3935425224E-03       4    7    1         0.2190489362E-01      0.4513122495E-01
          0                 4           1             4    7     1      -0.1565942802E-04       4    7    1        -0.8959115894E-03      0.1845855665E-02

    ------------------------------------------------
       NWT REQUIRED            4 OUTER ITERATIONS 
       AND A TOTAL OF          7 INNER ITERATIONS.
    ------------------------------------------------

 NO OUTPUT CONTROL FOR STRESS PERIOD   23   TIME STEP   20
 
 SOLVING FOR HEAD 
                                                   Max.-Head-Change                         Max.-Flux-Residual
  Residual-Control   Outer-Iter.   Inner-Iter.     Column Row Layer    Maximum-Head-Change  Column Row Layer    Maximum-Flux-Residual          L2-NORM 
          0                 1           2             4    7     1       0.5860468860E-01       4    7    1         0.3086896963E+01      0.6350578927E+01
          0                 2           2             4    7     1      -0.5700702780E-02       4    7    1        -0.3086940920E+00      0.6350582425E+00
          0                 3           2             4    7     1       0.3881960935E-03       4    7    1         0.2160855419E-01      0.4445390016E-01
          0                 4           1             4    7     1      -0.1544668891E-04       4    7    1        -0.8837912885E-03      0.1818162669E-02

    ------------------------------------------------
       NWT REQUIRED            4 OUTER ITERATIONS 
       AND A TOTAL OF          7 INNER ITERATIONS.
    ------------------------------------------------

 NO OUTPUT CONTROL FOR STRESS PERIOD   23   TIME STEP   21
 
 SOLVING FOR HEAD 
                                                   Max.-Head-Change                         Max.-Flux-Residual
  Residual-Control   Outer-Iter.   Inner-Iter.     Column Row Layer    Maximum-Head-Change  Column Row Layer    Maximum-Flux-Residual          L2-NORM 
          0                 1           2             4    7     1       0.5780559401E-01       4    7    1         0.3044961320E+01      0.6256345317E+01
          0                 2           2             4    7     1      -0.5622971578E-02       4    7    1        -0.3045004532E+00      0.6256349491E+00
          0                 3           2             4    7     1       0.3829028972E-03       4    7    1         0.2131500004E-01      0.4379427779E-01
          0                 4           1             4    7     1      -0.1523606722E-04       4    7    1        -0.8717849003E-03      0.1791179665E-02

    ------------------------------------------------
       NWT REQUIRED            4 OUTER ITERATIONS 
       AND A TOTAL OF          7 INNER ITERATIONS.
    ------------------------------------------------

 NO OUTPUT CONTROL FOR STRESS PERIOD   23   TIME STEP   22
 
 SOLVING FOR HEAD 
                                                   Max.-Head-Change                         Max.-Flux-Residual
  Residual-Control   Outer-Iter.   Inner-Iter.     Column Row Layer    Maximum-Head-Change  Column Row Layer    Maximum-Flux-Residual          L2-NORM 
          0                 1           2             4    7     1       0.5701485003E-01       4    7    1         0.3003442349E+01      0.6164520175E+01
          0                 2           2             4    7     1      -0.5546052633E-02       4    7    1        -0.3003484798E+00      0.6164524778E+00
          0                 3           2             4    7     1       0.3776650134E-03       4    7    1         0.2102436250E-01      0.4315151131E-01
          0                 4           1             4    7     1      -0.1502764712E-04       4    7    1        -0.8598978218E-03      0.1764895250E-02

    ------------------------------------------------
       NWT REQUIRED            4 OUTER ITERATIONS 
       AND A TOTAL OF          7 INNER ITERATIONS.
    ------------------------------------------------

 NO OUTPUT CONTROL FOR STRESS PERIOD   23   TIME STEP   23
 
 SOLVING FOR HEAD 
                                                   Max.-Head-Change                         Max.-Flux-Residual
  Residual-Control   Outer-Iter.   Inner-Iter.     Column Row Layer    Maximum-Head-Change  Column Row Layer    Maximum-Flux-Residual          L2-NORM 
          0                 1           2             4    7     1       0.5623273302E-01       4    7    1         0.2962356320E+01      0.6075012790E+01
          0                 2           2             4    7     1      -0.5469972835E-02       4    7    1        -0.2962397989E+00      0.6075017906E+00
          0                 3           2             4    7     1       0.3724842722E-03       4    7    1         0.2073675546E-01      0.4252499207E-01
          0                 4           1             4    7     1      -0.1482150056E-04       4    7    1        -0.8481346636E-03      0.1739297728E-02

    ------------------------------------------------
       NWT REQUIRED            4 OUTER ITERATIONS 
       AND A TOTAL OF          7 INNER ITERATIONS.
    ------------------------------------------------

 NO OUTPUT CONTROL FOR STRESS PERIOD   23   TIME STEP   24
 
 SOLVING FOR HEAD 
                                                   Max.-Head-Change                         Max.-Flux-Residual
  Residual-Control   Outer-Iter.   Inner-Iter.     Column Row Layer    Maximum-Head-Change  Column Row Layer    Maximum-Flux-Residual          L2-NORM 
          0                 1           2             4    7     1       0.5545962120E-01       4    7    1         0.2921724843E+01      0.5987730802E+01
          0                 2           2             4    7     1      -0.5394768978E-02       4    7    1        -0.2921765721E+00      0.5987736133E+00
          0                 3           2             4    7     1       0.3673631797E-03       4    7    1         0.2045233020E-01      0.4191400263E-01
          0                 4           1             4    7     1      -0.1461772747E-04       4    7    1        -0.8365016492E-03      0.1714276669E-02

    ------------------------------------------------
       NWT REQUIRED            4 OUTER ITERATIONS 
       AND A TOTAL OF          7 INNER ITERATIONS.
    ------------------------------------------------

 NO OUTPUT CONTROL FOR STRESS PERIOD   23   TIME STEP   25
 
 SOLVING FOR HEAD 
                                                   Max.-Head-Change                         Max.-Flux-Residual
  Residual-Control   Outer-Iter.   Inner-Iter.     Column Row Layer    Maximum-Head-Change  Column Row Layer    Maximum-Flux-Residual          L2-NORM 
          0                 1           2             4    7     1       0.5469558616E-01       4    7    1         0.2881552968E+01      0.5902598100E+01
          0                 2           2             4    7     1      -0.5320448030E-02       4    7    1        -0.2881593047E+00      0.5902603770E+00
          0                 3           2             4    7     1       0.3623022101E-03       4    7    1         0.2017112212E-01      0.4131808443E-01
          0                 4           1             4    7     1      -0.1441634662E-04       4    7    1        -0.8250002104E-03      0.1689915887E-02

    ------------------------------------------------
       NWT REQUIRED            4 OUTER ITERATIONS 
       AND A TOTAL OF          7 INNER ITERATIONS.
    ------------------------------------------------

 NO OUTPUT CONTROL FOR STRESS PERIOD   23   TIME STEP   26
 
 SOLVING FOR HEAD 
                                                   Max.-Head-Change                         Max.-Flux-Residual
  Residual-Control   Outer-Iter.   Inner-Iter.     Column Row Layer    Maximum-Head-Change  Column Row Layer    Maximum-Flux-Residual          L2-NORM 
          0                 1           2             4    7     1       0.5394080404E-01       4    7    1         0.2841851688E+01      0.5819512764E+01
          0                 2           2             4    7     1      -0.5247027131E-02       4    7    1        -0.2841890961E+00      0.5819518661E+00
          0                 3           2             4    7     1       0.3573025306E-03       4    7    1         0.1989320815E-01      0.4073650669E-01
          0                 4           1             4    7     1      -0.1421740474E-04       4    7    1        -0.8136335239E-03      0.1666138394E-02

    ------------------------------------------------
       NWT REQUIRED            4 OUTER ITERATIONS 
       AND A TOTAL OF          7 INNER ITERATIONS.
    ------------------------------------------------

 NO OUTPUT CONTROL FOR STRESS PERIOD   23   TIME STEP   27
 
 SOLVING FOR HEAD 
                                                   Max.-Head-Change                         Max.-Flux-Residual
  Residual-Control   Outer-Iter.   Inner-Iter.     Column Row Layer    Maximum-Head-Change  Column Row Layer    Maximum-Flux-Residual          L2-NORM 
          0                 1           2             4    7     1       0.5319569405E-01       4    7    1         0.2802644700E+01      0.5738419244E+01
          0                 2           2             4    7     1      -0.5174547062E-02       4    7    1        -0.2802683165E+00      0.5738425073E+00
          0                 3           2             4    7     1       0.3523669181E-03       4    7    1         0.1961875423E-01      0.4016884463E-01
          0                 4           1             4    7     1      -0.1402101191E-04       4    7    1        -0.8024083297E-03      0.1642904701E-02

    ------------------------------------------------
       NWT REQUIRED            4 OUTER ITERATIONS 
       AND A TOTAL OF          7 INNER ITERATIONS.
    ------------------------------------------------

 NO OUTPUT CONTROL FOR STRESS PERIOD   23   TIME STEP   28
 
 SOLVING FOR HEAD 
                                                   Max.-Head-Change                         Max.-Flux-Residual
  Residual-Control   Outer-Iter.   Inner-Iter.     Column Row Layer    Maximum-Head-Change  Column Row Layer    Maximum-Flux-Residual          L2-NORM 
          0                 1           2             4    7     1       0.5246010450E-01       4    7    1         0.2763924613E+01      0.5659238023E+01
          0                 2           2             4    7     1      -0.5102993070E-02       4    7    1        -0.2763962268E+00      0.5659243853E+00
          0                 3           2             4    7     1       0.3474943682E-03       4    7    1         0.1934770860E-01      0.3961457125E-01
          0                 4           1             4    7     1      -0.1382712874E-04       4    7    1        -0.7913225547E-03      0.1620238974E-02

    ------------------------------------------------
       NWT REQUIRED            4 OUTER ITERATIONS 
       AND A TOTAL OF          7 INNER ITERATIONS.
    ------------------------------------------------

 NO OUTPUT CONTROL FOR STRESS PERIOD   23   TIME STEP   29
 
 SOLVING FOR HEAD 
                                                   Max.-Head-Change                         Max.-Flux-Residual
  Residual-Control   Outer-Iter.   Inner-Iter.     Column Row Layer    Maximum-Head-Change  Column Row Layer    Maximum-Flux-Residual          L2-NORM 
          0                 1           2             4    7     1       0.5173426863E-01       4    7    1         0.2725705409E+01      0.5581895210E+01
          0                 2           2             4    7     1      -0.5032387847E-02       4    7    1        -0.2725742255E+00      0.5581900966E+00
          0                 3           2             4    7     1       0.3426864259E-03       4    7    1         0.1908016916E-01      0.3907317547E-01
          0                 4           1             4    7     1      -0.1363581614E-04       4    7    1        -0.7803801768E-03      0.1598082033E-02

    ------------------------------------------------
       NWT REQUIRED            4 OUTER ITERATIONS 
       AND A TOTAL OF          7 INNER ITERATIONS.
    ------------------------------------------------

 NO OUTPUT CONTROL FOR STRESS PERIOD   23   TIME STEP   30



 STREAM LISTING     PERIOD     23   STEP       30

 LAYER ROW COL. STREAM  RCH.  FLOW INTO     FLOW TO   FLOW OUT OF   OVRLND.     DIRECT     STREAM       STREAM     STREAM     STREAM   STREAMBED  STREAMBED
                SEG.NO.  NO.  STRM. RCH.    AQUIFER    STRM. RCH.    RUNOFF     PRECIP       ET          HEAD       DEPTH      WIDTH   CONDCTNC.   GRADIENT

   1    1    1     1     1    1.6500E+01  1.9759E-01   1.6303E+01  0.000E+00  0.000E+00  0.000E+00  1.09409E+03  1.039E+00  1.087E+01  4.893E-02  1.346E+00
   1    2    2     1     2    1.6303E+01  3.0466E-01   1.5998E+01  0.000E+00  0.000E+00  0.000E+00  1.08909E+03  1.034E+00  1.079E+01  7.552E-02  1.345E+00
   1    3    3     1     3    1.5998E+01  2.5853E-01   1.5739E+01  0.000E+00  0.000E+00  0.000E+00  1.08345E+03  1.029E+00  1.070E+01  6.417E-02  1.343E+00
   1    3    4     1     4    1.5739E+01  2.3700E-01   1.5502E+01  0.000E+00  0.000E+00  0.000E+00  1.07843E+03  1.024E+00  1.061E+01  5.890E-02  1.341E+00
   1    4    5     2     1    1.3502E+01  2.9865E-01   1.3204E+01  0.000E+00  0.000E+00  0.000E+00  1.07276E+03  8.289E-01  1.200E+01  7.800E-02  1.276E+00
   1    5    6     2     2    1.3204E+01  2.2914E-01   1.2975E+01  0.000E+00  0.000E+00  0.000E+00  1.06733E+03  8.190E-01  1.200E+01  6.000E-02  1.273E+00
   1    6    6     2     3    1.2975E+01  2.2862E-01   1.2746E+01  0.000E+00  0.000E+00  0.000E+00  1.06260E+03  8.104E-01  1.200E+01  6.000E-02  1.270E+00
   1    7    6     2     4    1.2746E+01  2.2810E-01   1.2518E+01  0.000E+00  0.000E+00  0.000E+00  1.05788E+03  8.017E-01  1.200E+01  6.000E-02  1.267E+00
   1    8    6     2     5    1.2518E+01  2.2758E-01   1.2290E+01  0.000E+00  0.000E+00  0.000E+00  1.05315E+03  7.930E-01  1.200E+01  6.000E-02  1.264E+00
   1    3    5     3     1    2.0000E+00  2.8252E-01   1.7175E+00  0.000E+00  0.000E+00  0.000E+00  1.07555E+03  1.909E+00  9.636E+00  7.227E-02  1.955E+00
   1    3    6     3     2    1.7175E+00  2.4905E-01   1.4684E+00  0.000E+00  0.000E+00  0.000E+00  1.07264E+03  1.727E+00  8.909E+00  6.682E-02  1.864E+00
   1    3    7     3     3    1.4684E+00  1.9718E-01   1.2712E+00  0.000E+00  0.000E+00  0.000E+00  1.06987E+03  1.555E+00  8.218E+00  5.547E-02  1.777E+00
   1    4    8     3     4    1.2712E+00  2.2567E-01   1.0456E+00  0.000E+00  0.000E+00  0.000E+00  1.06682E+03  1.364E+00  7.455E+00  6.709E-02  1.682E+00
   1    5    8     3     5    1.0456E+00  1.5790E-01   8.8768E-01  0.000E+00  0.000E+00  0.000E+00  1.06362E+03  1.164E+00  6.655E+00  4.991E-02  1.582E+00
   1    6    8     3     6    8.8768E-01  5.5980E-02   8.3170E-01  0.000E+00  0.000E+00  0.000E+00  1.06158E+03  1.036E+00  6.145E+00  1.844E-02  1.518E+00
   1    5   10     4     1    1.0000E+01  9.0919E-02   9.9091E+00  0.000E+00  0.000E+00  0.000E+00  1.07836E+03  6.368E-01  1.000E+01  2.500E-02  1.212E+00
   1    5    9     4     2    9.9091E+00  1.8158E-01   9.7275E+00  0.000E+00  0.000E+00  0.000E+00  1.07154E+03  6.315E-01  1.000E+01  5.000E-02  1.211E+00
   1    6    8     4     3    9.7275E+00  1.2689E-01   9.6006E+00  0.000E+00  0.000E+00  0.000E+00  1.06381E+03  6.256E-01  1.000E+01  3.500E-02  1.209E+00
   1    6    8     5     1    1.0432E+01  2.2686E-01   1.0205E+01  0.000E+00  0.000E+00  0.000E+00  1.05868E+03  6.790E-01  1.542E+01  6.166E-02  1.226E+00
   1    7    7     5     2    1.0205E+01  2.7894E-01   9.9265E+00  0.000E+00  0.000E+00  0.000E+00  1.05417E+03  6.732E-01  1.519E+01  7.594E-02  1.224E+00
   1    8    7     5     3    9.9265E+00  1.9221E-01   9.7343E+00  0.000E+00  0.000E+00  0.000E+00  1.04992E+03  6.676E-01  1.497E+01  5.241E-02  1.223E+00
   1    8    6     5     4    9.7343E+00  1.3577E-01   9.5985E+00  0.000E+00  0.000E+00  0.000E+00  1.04691E+03  6.637E-01  1.482E+01  3.706E-02  1.221E+00
   1    9    6     6     1    2.1889E+01  2.4742E-01   2.1641E+01  0.000E+00  0.000E+00  0.000E+00  1.04385E+03  1.124E+00  1.200E+01  6.000E-02  1.375E+00
   1   10    7     6     2    2.1641E+01  2.4696E-01   2.1395E+01  0.000E+00  0.000E+00  0.000E+00  1.03930E+03  1.116E+00  1.200E+01  6.000E-02  1.372E+00
   1   11    7     6     3    2.1395E+01  2.4650E-01   2.1148E+01  0.000E+00  0.000E+00  0.000E+00  1.03474E+03  1.108E+00  1.200E+01  6.000E-02  1.369E+00
   1   12    7     6     4    2.1148E+01  2.4603E-01   2.0902E+01  0.000E+00  0.000E+00  0.000E+00  1.03019E+03  1.101E+00  1.200E+01  6.000E-02  1.367E+00
   1   13    7     6     5    2.0902E+01  1.0691E-03   2.0901E+01  0.000E+00  0.000E+00  0.000E+00  1.02701E+03  1.097E+00  1.200E+01  2.400E-02  1.485E-02
   1   14    9     7     1    1.5000E+02  1.3410E+00   1.4866E+02  0.000E+00  0.000E+00  0.000E+00  1.03987E+03  2.288E+00  5.529E+01  5.593E-01  7.992E-01
   1   13    8     7     2    1.4866E+02  1.8622E+00   1.4680E+02  0.000E+00  0.000E+00  0.000E+00  1.03478E+03  2.279E+00  5.526E+01  6.148E-01  1.010E+00
   1   13    7     7     3    1.4680E+02  1.5236E+00   1.4527E+02  0.000E+00  0.000E+00  0.000E+00  1.02969E+03  2.270E+00  5.522E+01  5.584E-01  9.094E-01
   1   13    6     8     1    1.6617E+02  9.5873E-01   1.6522E+02  0.000E+00  0.000E+00  0.000E+00  1.02480E+03  2.924E+00  4.240E+01  4.320E-01  7.397E-01
   1   13    5     8     2    1.6522E+02  2.1918E-01   1.6500E+02  0.000E+00  0.000E+00  0.000E+00  1.01855E+03  2.920E+00  4.234E+01  4.315E-01  1.693E-01
   1   13    4     8     3    1.6500E+02 -2.2703E+00   1.6727E+02  0.000E+00  0.000E+00  0.000E+00  1.01230E+03  2.927E+00  4.244E+01  4.325E+00 -1.750E-01
   1   13    3     8     4    1.6727E+02 -3.5822E+00   1.7085E+02  0.000E+00  0.000E+00  0.000E+00  1.00607E+03  2.946E+00  4.272E+01  4.353E+00 -2.743E-01
   1   13    2     8     5    1.7085E+02 -2.5724E+00   1.7342E+02  0.000E+00  0.000E+00  0.000E+00  9.99841E+02  2.966E+00  4.301E+01  4.383E+00 -1.957E-01
   1   13    1     8     6    1.7342E+02 -1.9927E+00   1.7541E+02  0.000E+00  0.000E+00  0.000E+00  9.94856E+02  2.981E+00  4.322E+01  2.643E+00 -2.514E-01
   1    8    6     9     1    0.0000E+00  0.0000E+00   0.0000E+00  0.000E+00  0.000E+00  0.000E+00  1.07875E+03  0.000E+00  4.000E+00  0.000E+00  1.000E+00
   1    8    5     9     2    0.0000E+00  0.0000E+00   0.0000E+00  0.000E+00  0.000E+00  0.000E+00  1.07825E+03  0.000E+00  4.000E+00  0.000E+00  1.000E+00





UNSATURATED ZONE PACKAGE VOLUMETRIC BUDGET FOR  TIME STEP    30 STRESS PERIOD   23
  ------------------------------------------------------------------------------



     CUMULATIVE VOLUMES      L**3       RATES FOR THIS TIME STEP      L**3/T
     ------------------                 ------------------------

           IN:                                      IN:
           ---                                      ---
        INFILTRATION =   856888288.2052          INFILTRATION =           0.8475

          OUT:                                     OUT:
          ----                                     ----
              UZF ET =   856142820.6611                UZF ET =           0.8475
        UZF RECHARGE =       73224.0000          UZF RECHARGE =       0.0000E+00

            IN - OUT =      672243.5441              IN - OUT =       0.0000E+00

          STORAGE:                                 STORAGE:
          --------                                 --------
      STORAGE CHANGE =      672243.4909        STORAGE CHANGE =       0.0000E+00

 PERCENT DISCREPANCY IS DIFFERENCE BETWEEN IN-OUT MINUS CHANGE IN STORAGE
 DIVIDED BY THE AVERAGE OF IN AND OUT TIMES 100

 PERCENT DISCREPANCY =           0.00     PERCENT DISCREPANCY =           0.00






1
  VOLUMETRIC BUDGET FOR AGRICULTURAL FIELDS AT  END OF TIME STEP   30, STRESS PERIOD  23
  ------------------------------------------------------------------------------

     CUMULATIVE VOLUMES      L**3       RATES FOR THIS TIME STEP      L**3/T
     ------------------                 ------------------------

           IN:                                      IN:
           ---                                      ---
               AG WELLS  =   807776960.0000                 AG WELLS  =           0.0000
      DIVERSION SEGMENTS =           0.0000        DIVERSION SEGMENTS =           0.0000
       IRRIGATION PONDS  =           0.0000         IRRIGATION PONDS  =           0.0000
           GW IRRIGATION =           0.0000             GW IRRIGATION =           0.0000
           SW IRRIGATION =           0.0000             SW IRRIGATION =           0.0000
        SYSTEM LOSSES GW =           0.0000          SYSTEM LOSSES GW =           0.0000
        SYSTEM LOSSES SW =           0.0000          SYSTEM LOSSES SW =           0.0000

                TOTAL IN =   807776960.0000                  TOTAL IN =           0.0000

          OUT:                                     OUT:
          ----                                     ----
               AG WELLS  =           0.0000                 AG WELLS  =           0.0000
      DIVERSION SEGMENTS =           0.0000        DIVERSION SEGMENTS =           0.0000
       IRRIGATION PONDS  =           0.0000         IRRIGATION PONDS  =           0.0000
           GW IRRIGATION =   807776960.0000             GW IRRIGATION =           0.0000
           SW IRRIGATION =           0.0000             SW IRRIGATION =           0.0000
        SYSTEM LOSSES GW =           0.0000          SYSTEM LOSSES GW =           0.0000
        SYSTEM LOSSES SW =           0.0000          SYSTEM LOSSES SW =           0.0000

               TOTAL OUT =   807776960.0000                 TOTAL OUT =           0.0000

                IN - OUT =           0.0000                  IN - OUT =           0.0000

     PERCENT DISCREPANCY =           0.00         PERCENT DISCREPANCY =           0.00



1
  VOLUMETRIC BUDGET FOR ENTIRE MODEL AT END OF TIME STEP   30, STRESS PERIOD  23
  ------------------------------------------------------------------------------

     CUMULATIVE VOLUMES      L**3       RATES FOR THIS TIME STEP      L**3/T
     ------------------                 ------------------------

           IN:                                      IN:
           ---                                      ---
             STORAGE     =  1042129664.0000               STORAGE     =          13.4907
       CONSTANT HEAD     =           0.0000         CONSTANT HEAD     =           0.0000
     HEAD DEP BOUNDS     =    16559030.0000       HEAD DEP BOUNDS     =           0.2861
      STREAM LEAKAGE     =   702548672.0000        STREAM LEAKAGE     =          11.5040
        UZF RECHARGE     =       73223.9531          UZF RECHARGE     =           0.0000
               GW ET     =           0.0000                 GW ET     =           0.0000
     SURFACE LEAKAGE     =           0.0000       SURFACE LEAKAGE     =           0.0000
           AG WELLS      =           0.0000             AG WELLS      =           0.0000

                TOTAL IN =  1761310592.0000                  TOTAL IN =          25.2808

          OUT:                                     OUT:
          ----                                     ----
             STORAGE     =   320402656.0000               STORAGE     =          14.5740
       CONSTANT HEAD     =           0.0000         CONSTANT HEAD     =           0.0000
     HEAD DEP BOUNDS     =    16945162.0000       HEAD DEP BOUNDS     =           0.2892
      STREAM LEAKAGE     =   608874560.0000        STREAM LEAKAGE     =          10.4176
        UZF RECHARGE     =           0.0000          UZF RECHARGE     =           0.0000
               GW ET     =     7311766.5000                 GW ET     =           0.0000
     SURFACE LEAKAGE     =           0.0000       SURFACE LEAKAGE     =           0.0000
           AG WELLS      =   807776960.0000             AG WELLS      =           0.0000

               TOTAL OUT =  1761310976.0000                 TOTAL OUT =          25.2808

                IN - OUT =        -384.0000                  IN - OUT =       9.5367E-06

     PERCENT DISCREPANCY =          -0.00         PERCENT DISCREPANCY =           0.00






         TIME SUMMARY AT END OF TIME STEP   30 IN STRESS PERIOD   23
                    SECONDS     MINUTES      HOURS       DAYS        YEARS
                    -----------------------------------------------------------
   TIME STEP LENGTH  87667.      1461.1      24.352      1.0147     2.77799E-03
 STRESS PERIOD TIME 2.63000E+06  43833.      730.56      30.440     8.33397E-02
         TOTAL TIME 5.79467E+07 9.65778E+05  16096.      670.68      1.8362    
1
1
                            STRESS PERIOD NO.   24, LENGTH =   2630000.    
                            -----------------------------------------------

                              NUMBER OF TIME STEPS =    30

                               MULTIPLIER FOR DELT =     1.000

                            INITIAL TIME STEP SIZE =   87666.66    

 REUSING NON-PARAMETER GHB CELLS FROM LAST STRESS PERIOD

      2 GHB CELLS

 REUSING STREAM SEGMENT DATA FROM LAST STRESS PERIOD



            AREAL INFILTRATION RATE
 READING ON UNIT   19 WITH FORMAT: (FREE)              

            1           2           3           4           5           6           7           8           9          10
 ........................................................................................................................
   1   1.0000E-10  2.0000E-10   0.000       0.000       0.000       0.000       0.000       0.000       0.000       0.000    
   2   2.0000E-10  1.0000E-10  2.0000E-10   0.000       0.000      8.0000E-10  8.0000E-10  5.0000E-10   0.000       0.000    
   3    0.000      5.0000E-10  1.0000E-10  1.0000E-10  8.0000E-10  8.0000E-10  5.0000E-10  5.0000E-10   0.000       0.000    
   4   8.0000E-10  5.0000E-10  1.0000E-10  1.0000E-10  1.0000E-10  1.0000E-10  1.0000E-10  1.0000E-10  2.0000E-10   0.000    
   5   8.0000E-10  5.0000E-10  1.0000E-10  1.0000E-10  1.0000E-10  1.0000E-10  1.0000E-10  1.0000E-10  1.0000E-10  1.0000E-10
   6   8.0000E-10  5.0000E-10  5.0000E-10  2.0000E-10  2.0000E-10  1.0000E-10  1.0000E-10  1.0000E-10  1.0000E-10  5.0000E-10
   7   8.0000E-10  5.0000E-10  5.0000E-10  2.0000E-10  2.0000E-10  1.0000E-10  1.0000E-10  2.0000E-10  2.0000E-10   0.000    
   8    0.000      5.0000E-10  5.0000E-10  2.0000E-10  2.0000E-10  1.0000E-10  1.0000E-10  2.0000E-10  5.0000E-10   0.000    
   9    0.000      5.0000E-10  5.0000E-10  2.0000E-10  2.0000E-10  1.0000E-10  1.0000E-10  2.0000E-10  5.0000E-10   0.000    
  10    0.000      5.0000E-10  5.0000E-10  2.0000E-10  2.0000E-10  1.0000E-10  1.0000E-10  2.0000E-10  5.0000E-10  8.0000E-10
  11    0.000      1.0000E-10  1.0000E-10  1.0000E-10  1.0000E-10  1.0000E-10  1.0000E-10  2.0000E-10  5.0000E-10   0.000    
  12   1.0000E-10  1.0000E-10  1.0000E-10  1.0000E-10  1.0000E-10  1.0000E-10  1.0000E-10  1.0000E-10  2.0000E-10   0.000    
  13   1.0000E-10  1.0000E-10  2.0000E-10  2.0000E-10  2.0000E-10  2.0000E-10  2.0000E-10  1.0000E-10  1.0000E-10   0.000    
  14    0.000      2.0000E-10  5.0000E-10  5.0000E-10  5.0000E-10  5.0000E-10  5.0000E-10  2.0000E-10  1.0000E-10   0.000    
  15    0.000       0.000      8.0000E-10  8.0000E-10  8.0000E-10  8.0000E-10   0.000       0.000       0.000       0.000    

                  ET RATE =  5.000000E-10

 USING ET EXTINCTION DEPTH FROM PREVIOUS STRESS PERIOD. CURRENT PERIOD IS:      24

 USING EXTINCTION WATER CONTENT FROM PREVIOUS STRESS PERIOD. CURRENT PERIOD IS:      24

 USING AIR ENTRY PRESSURE FROM PREVIOUS STRESS PERIOD. CURRENT PERIOD IS:      24

 USING ROOT PRESSURE HEAD FROM PREVIOUS STRESS PERIOD. CURRENT PERIOD IS:      24

 USING ROOT ACTIVITY FROM PREVIOUS STRESS PERIOD. CURRENT PERIOD IS:      24

 PROCESSING AG STRESS PERIOD DATA

 READING AG STRESS PERIOD DATA

 READING IRRIGATION SEGMENT

 READING IRRIGATION WELL

 READING SUPPLEMENTAL WELL

 NO IRRPOND OR REUSING IRRPOND DATA FROM LAST STRESS PERIOD

 END PROCESSING AG STRESS PERIOD DATA OPTIONS
 
 SOLVING FOR HEAD 
                                                   Max.-Head-Change                         Max.-Flux-Residual
  Residual-Control   Outer-Iter.   Inner-Iter.     Column Row Layer    Maximum-Head-Change  Column Row Layer    Maximum-Flux-Residual          L2-NORM 
          0                 1           2             4    7     1       0.5101838604E-01       4    7    1         0.2687999184E+01      0.5506905059E+01
          0                 2           2             4    7     1      -0.4962750812E-02       4    7    1        -0.2688035225E+00      0.5506904549E+00
          0                 3           2             4    7     1       0.3379444132E-03       4    7    1         0.1881622060E-01      0.3854814775E-01
          0                 4           1             4    7     1      -0.1344712649E-04       4    7    1        -0.7695846393E-03      0.1576613678E-02

    ------------------------------------------------
       NWT REQUIRED            4 OUTER ITERATIONS 
       AND A TOTAL OF          7 INNER ITERATIONS.
    ------------------------------------------------

 NO OUTPUT CONTROL FOR STRESS PERIOD   24   TIME STEP    1
 
 SOLVING FOR HEAD 
                                                   Max.-Head-Change                         Max.-Flux-Residual
  Residual-Control   Outer-Iter.   Inner-Iter.     Column Row Layer    Maximum-Head-Change  Column Row Layer    Maximum-Flux-Residual          L2-NORM 
          0                 1           2             4    7     1       0.5031236777E-01       4    7    1         0.2650801718E+01      0.5434000650E+01
          0                 2           2             4    7     1      -0.4894073313E-02       4    7    1        -0.2650836960E+00      0.5433988485E+00
          0                 3           2             4    7     1       0.3332677420E-03       4    7    1         0.1855583339E-01      0.3803762504E-01
          0                 4           1             4    7     1      -0.1326103781E-04       4    7    1        -0.7589348054E-03      0.1555725727E-02

    ------------------------------------------------
       NWT REQUIRED            4 OUTER ITERATIONS 
       AND A TOTAL OF          7 INNER ITERATIONS.
    ------------------------------------------------

 NO OUTPUT CONTROL FOR STRESS PERIOD   24   TIME STEP    2
 
 SOLVING FOR HEAD 
                                                   Max.-Head-Change                         Max.-Flux-Residual
  Residual-Control   Outer-Iter.   Inner-Iter.     Column Row Layer    Maximum-Head-Change  Column Row Layer    Maximum-Flux-Residual          L2-NORM 
          0                 1           2             4    7     1       0.4961624904E-01       4    7    1         0.2614115684E+01      0.5361777165E+01
          0                 2           2             4    7     1      -0.4826358777E-02       4    7    1        -0.2614150132E+00      0.5361766576E+00
          0                 3           2             4    7     1       0.3286566444E-03       4    7    1         0.1829902623E-01      0.3753209967E-01
          0                 4           1             4    7     1      -0.1307755769E-04       4    7    1        -0.7484313787E-03      0.1535059094E-02

    ------------------------------------------------
       NWT REQUIRED            4 OUTER ITERATIONS 
       AND A TOTAL OF          7 INNER ITERATIONS.
    ------------------------------------------------

 NO OUTPUT CONTROL FOR STRESS PERIOD   24   TIME STEP    3
 
 SOLVING FOR HEAD 
                                                   Max.-Head-Change                         Max.-Flux-Residual
  Residual-Control   Outer-Iter.   Inner-Iter.     Column Row Layer    Maximum-Head-Change  Column Row Layer    Maximum-Flux-Residual          L2-NORM 
          0                 1           2             4    7     1       0.4893017451E-01       4    7    1         0.2577950195E+01      0.5291156233E+01
          0                 2           2             4    7     1      -0.4759621280E-02       4    7    1        -0.2577983856E+00      0.5291146807E+00
          0                 3           2             4    7     1       0.3241120795E-03       4    7    1         0.1804586294E-01      0.3703777787E-01
          0                 4           1             4    7     1      -0.1289672515E-04       4    7    1        -0.7380769655E-03      0.1514837882E-02

    ------------------------------------------------
       NWT REQUIRED            4 OUTER ITERATIONS 
       AND A TOTAL OF          7 INNER ITERATIONS.
    ------------------------------------------------

 NO OUTPUT CONTROL FOR STRESS PERIOD   24   TIME STEP    4
 
 SOLVING FOR HEAD 
                                                   Max.-Head-Change                         Max.-Flux-Residual
  Residual-Control   Outer-Iter.   Inner-Iter.     Column Row Layer    Maximum-Head-Change  Column Row Layer    Maximum-Flux-Residual          L2-NORM 
          0                 1           2             4    7     1       0.4825414248E-01       4    7    1         0.2542305467E+01      0.5222093848E+01
          0                 2           2             4    7     1      -0.4693860657E-02       4    7    1        -0.2542338350E+00      0.5222085255E+00
          0                 3           2             4    7     1       0.3196340362E-03       4    7    1         0.1779634503E-01      0.3655433999E-01
          0                 4           1             4    7     1      -0.1271853975E-04       4    7    1        -0.7278716714E-03      0.1495066468E-02

    ------------------------------------------------
       NWT REQUIRED            4 OUTER ITERATIONS 
       AND A TOTAL OF          7 INNER ITERATIONS.
    ------------------------------------------------

 NO OUTPUT CONTROL FOR STRESS PERIOD   24   TIME STEP    5
 
 SOLVING FOR HEAD 
                                                   Max.-Head-Change                         Max.-Flux-Residual
  Residual-Control   Outer-Iter.   Inner-Iter.     Column Row Layer    Maximum-Head-Change  Column Row Layer    Maximum-Flux-Residual          L2-NORM 
          0                 1           2             4    7     1       0.4758813237E-01       4    7    1         0.2507181411E+01      0.5154535671E+01
          0                 2           2             4    7     1      -0.4629074907E-02       4    7    1        -0.2507213526E+00      0.5154528621E+00
          0                 3           2             4    7     1       0.3152223777E-03       4    7    1         0.1755047188E-01      0.3608164560E-01
          0                 4           1             4    7     1      -0.1254299549E-04       4    7    1        -0.7178154394E-03      0.1476119698E-02

    ------------------------------------------------
       NWT REQUIRED            4 OUTER ITERATIONS 
       AND A TOTAL OF          7 INNER ITERATIONS.
    ------------------------------------------------

 NO OUTPUT CONTROL FOR STRESS PERIOD   24   TIME STEP    6
 
 SOLVING FOR HEAD 
                                                   Max.-Head-Change                         Max.-Flux-Residual
  Residual-Control   Outer-Iter.   Inner-Iter.     Column Row Layer    Maximum-Head-Change  Column Row Layer    Maximum-Flux-Residual          L2-NORM 
          0                 1           2             4    7     1       0.4693210996E-01       4    7    1         0.2472576962E+01      0.5088428944E+01
          0                 2           2             4    7     1      -0.4565260702E-02       4    7    1        -0.2472608319E+00      0.5088422275E+00
          0                 3           2             4    7     1       0.3108768778E-03       4    7    1         0.1730823604E-01      0.3561874379E-01
          0                 4           1             4    7     1      -0.1237008396E-04       4    7    1        -0.7079079799E-03      0.1456817887E-02

    ------------------------------------------------
       NWT REQUIRED            4 OUTER ITERATIONS 
       AND A TOTAL OF          7 INNER ITERATIONS.
    ------------------------------------------------

 NO OUTPUT CONTROL FOR STRESS PERIOD   24   TIME STEP    7
 
 SOLVING FOR HEAD 
                                                   Max.-Head-Change                         Max.-Flux-Residual
  Residual-Control   Outer-Iter.   Inner-Iter.     Column Row Layer    Maximum-Head-Change  Column Row Layer    Maximum-Flux-Residual          L2-NORM 
          0                 1           2             4    7     1       0.4628602933E-01       4    7    1         0.2438490344E+01      0.5023726541E+01
          0                 2           2             4    7     1      -0.4502413579E-02       4    7    1        -0.2438520954E+00      0.5023720570E+00
          0                 3           2             4    7     1       0.3065972322E-03       4    7    1         0.1706962509E-01      0.3516584104E-01
          0                 4           1             4    7     1      -0.1219979251E-04       4    7    1        -0.6981487611E-03      0.1438263099E-02

    ------------------------------------------------
       NWT REQUIRED            4 OUTER ITERATIONS 
       AND A TOTAL OF          7 INNER ITERATIONS.
    ------------------------------------------------

 NO OUTPUT CONTROL FOR STRESS PERIOD   24   TIME STEP    8
 
 SOLVING FOR HEAD 
                                                   Max.-Head-Change                         Max.-Flux-Residual
  Residual-Control   Outer-Iter.   Inner-Iter.     Column Row Layer    Maximum-Head-Change  Column Row Layer    Maximum-Flux-Residual          L2-NORM 
          0                 1           2             4    7     1       0.4564983445E-01       4    7    1         0.2404919179E+01      0.4960387756E+01
          0                 2           2             4    7     1      -0.4440528086E-02       4    7    1        -0.2404949054E+00      0.4960382239E+00
          0                 3           2             4    7     1       0.3023830705E-03       4    7    1         0.1683462239E-01      0.3472247784E-01
          0                 4           1             4    7     1      -0.1203210709E-04       4    7    1        -0.6885371422E-03      0.1420145992E-02

    ------------------------------------------------
       NWT REQUIRED            4 OUTER ITERATIONS 
       AND A TOTAL OF          7 INNER ITERATIONS.
    ------------------------------------------------

 NO OUTPUT CONTROL FOR STRESS PERIOD   24   TIME STEP    9
 
 SOLVING FOR HEAD 
                                                   Max.-Head-Change                         Max.-Flux-Residual
  Residual-Control   Outer-Iter.   Inner-Iter.     Column Row Layer    Maximum-Head-Change  Column Row Layer    Maximum-Flux-Residual          L2-NORM 
          0                 1           2             4    7     1       0.4502359388E-01       4    7    1         0.2371867850E+01      0.4898373973E+01
          0                 2           2             4    7     1      -0.4379610894E-02       4    7    1        -0.2371897003E+00      0.4898369008E+00
          0                 3           2             4    7     1       0.2982348458E-03       4    7    1         0.1660325862E-01      0.3428838171E-01
          0                 4           1             4    7     1      -0.1186704531E-04       4    7    1        -0.6790743460E-03      0.1402383600E-02

    ------------------------------------------------
       NWT REQUIRED            4 OUTER ITERATIONS 
       AND A TOTAL OF          7 INNER ITERATIONS.
    ------------------------------------------------

 NO OUTPUT CONTROL FOR STRESS PERIOD   24   TIME STEP   10
 
 SOLVING FOR HEAD 
                                                   Max.-Head-Change                         Max.-Flux-Residual
  Residual-Control   Outer-Iter.   Inner-Iter.     Column Row Layer    Maximum-Head-Change  Column Row Layer    Maximum-Flux-Residual          L2-NORM 
          0                 1           2             4    7     1       0.4440722512E-01       4    7    1         0.2339332626E+01      0.4837639244E+01
          0                 2           2             4    7     1      -0.4319653979E-02       4    7    1        -0.2339361069E+00      0.4837630123E+00
          0                 3           2             4    7     1       0.2941520122E-03       4    7    1         0.1637550765E-01      0.3386321754E-01
          0                 4           1             4    7     1      -0.1170458576E-04       4    7    1        -0.6697593101E-03      0.1384997834E-02

    ------------------------------------------------
       NWT REQUIRED            4 OUTER ITERATIONS 
       AND A TOTAL OF          7 INNER ITERATIONS.
    ------------------------------------------------

 NO OUTPUT CONTROL FOR STRESS PERIOD   24   TIME STEP   11
 
 SOLVING FOR HEAD 
                                                   Max.-Head-Change                         Max.-Flux-Residual
  Residual-Control   Outer-Iter.   Inner-Iter.     Column Row Layer    Maximum-Head-Change  Column Row Layer    Maximum-Flux-Residual          L2-NORM 
          0                 1           2             4    7     1       0.4380050652E-01       4    7    1         0.2307301935E+01      0.4778146972E+01
          0                 2           2             4    7     1      -0.4260635759E-02       4    7    1        -0.2307329681E+00      0.4777997465E+00
          0                 3           2             4    7     1       0.2901331005E-03       4    7    1         0.1615128849E-01      0.3344581256E-01
          0                 4           1             4    7     1      -0.1154466938E-04       4    7    1        -0.6605887447E-03      0.1367924233E-02

    ------------------------------------------------
       NWT REQUIRED            4 OUTER ITERATIONS 
       AND A TOTAL OF          7 INNER ITERATIONS.
    ------------------------------------------------

 NO OUTPUT CONTROL FOR STRESS PERIOD   24   TIME STEP   12
 
 SOLVING FOR HEAD 
                                                   Max.-Head-Change                         Max.-Flux-Residual
  Residual-Control   Outer-Iter.   Inner-Iter.     Column Row Layer    Maximum-Head-Change  Column Row Layer    Maximum-Flux-Residual          L2-NORM 
          0                 1           2             4    7     1       0.4320348222E-01       4    7    1         0.2275778872E+01      0.4719876451E+01
          0                 2           2             4    7     1      -0.4202559913E-02       4    7    1        -0.2275805934E+00      0.4719519385E+00
          0                 3           2             4    7     1       0.2861783603E-03       4    7    1         0.1593062282E-01      0.3303647002E-01
          0                 4           1             4    7     1      -0.1138730653E-04       4    7    1        -0.6515634889E-03      0.1351228755E-02

    ------------------------------------------------
       NWT REQUIRED            4 OUTER ITERATIONS 
       AND A TOTAL OF          7 INNER ITERATIONS.
    ------------------------------------------------

 NO OUTPUT CONTROL FOR STRESS PERIOD   24   TIME STEP   13
 
 SOLVING FOR HEAD 
                                                   Max.-Head-Change                         Max.-Flux-Residual
  Residual-Control   Outer-Iter.   Inner-Iter.     Column Row Layer    Maximum-Head-Change  Column Row Layer    Maximum-Flux-Residual          L2-NORM 
          0                 1           2             4    7     1       0.4261618698E-01       4    7    1         0.2244765760E+01      0.4662824005E+01
          0                 2           2             4    7     1      -0.4145431797E-02       4    7    1        -0.2244792152E+00      0.4662820707E+00
          0                 3           2             4    7     1       0.2822881571E-03       4    7    1         0.1571352688E-01      0.3263958020E-01
          0                 4           1             4    7     1      -0.1123251160E-04       4    7    1        -0.6426842594E-03      0.1334955440E-02

    ------------------------------------------------
       NWT REQUIRED            4 OUTER ITERATIONS 
       AND A TOTAL OF          7 INNER ITERATIONS.
    ------------------------------------------------

 NO OUTPUT CONTROL FOR STRESS PERIOD   24   TIME STEP   14
 
 SOLVING FOR HEAD 
                                                   Max.-Head-Change                         Max.-Flux-Residual
  Residual-Control   Outer-Iter.   Inner-Iter.     Column Row Layer    Maximum-Head-Change  Column Row Layer    Maximum-Flux-Residual          L2-NORM 
          0                 1           2             4    7     1       0.4203836969E-01       4    7    1         0.2214249708E+01      0.4606931571E+01
          0                 2           2             4    7     1      -0.4089224966E-02       4    7    1        -0.2214275443E+00      0.4606928312E+00
          0                 3           2             4    7     1       0.2784606897E-03       4    7    1         0.1549991045E-01      0.3224832764E-01
          0                 4           1             4    7     1      -0.1108021309E-04       4    7    1        -0.6339473339E-03      0.1318951501E-02

    ------------------------------------------------
       NWT REQUIRED            4 OUTER ITERATIONS 
       AND A TOTAL OF          7 INNER ITERATIONS.
    ------------------------------------------------

 NO OUTPUT CONTROL FOR STRESS PERIOD   24   TIME STEP   15
 
 SOLVING FOR HEAD 
                                                   Max.-Head-Change                         Max.-Flux-Residual
  Residual-Control   Outer-Iter.   Inner-Iter.     Column Row Layer    Maximum-Head-Change  Column Row Layer    Maximum-Flux-Residual          L2-NORM 
          0                 1           2             4    7     1       0.4146992291E-01       4    7    1         0.2184225099E+01      0.4552147365E+01
          0                 2           2             4    7     1      -0.4033929651E-02       4    7    1        -0.2184250192E+00      0.4552144273E+00
          0                 3           2             4    7     1       0.2746952928E-03       4    7    1         0.1528973420E-01      0.3186485581E-01
          0                 4           1             4    7     1      -0.1093038454E-04       4    7    1        -0.6253511021E-03      0.1303267232E-02

    ------------------------------------------------
       NWT REQUIRED            4 OUTER ITERATIONS 
       AND A TOTAL OF          7 INNER ITERATIONS.
    ------------------------------------------------

 NO OUTPUT CONTROL FOR STRESS PERIOD   24   TIME STEP   16
 
 SOLVING FOR HEAD 
                                                   Max.-Head-Change                         Max.-Flux-Residual
  Residual-Control   Outer-Iter.   Inner-Iter.     Column Row Layer    Maximum-Head-Change  Column Row Layer    Maximum-Flux-Residual          L2-NORM 
          0                 1           2             4    7     1       0.4091073173E-01       4    7    1         0.2154686325E+01      0.4498433876E+01
          0                 2           2             4    7     1      -0.3979534674E-02       4    7    1        -0.2154710789E+00      0.4498431001E+00
          0                 3           2             4    7     1       0.2709912056E-03       4    7    1         0.1508295890E-01      0.3148885961E-01
          0                 4           1             4    7     1      -0.1078299507E-04       4    7    1        -0.6168939669E-03      0.1287885824E-02

    ------------------------------------------------
       NWT REQUIRED            4 OUTER ITERATIONS 
       AND A TOTAL OF          7 INNER ITERATIONS.
    ------------------------------------------------

 NO OUTPUT CONTROL FOR STRESS PERIOD   24   TIME STEP   17
 
 SOLVING FOR HEAD 
                                                   Max.-Head-Change                         Max.-Flux-Residual
  Residual-Control   Outer-Iter.   Inner-Iter.     Column Row Layer    Maximum-Head-Change  Column Row Layer    Maximum-Flux-Residual          L2-NORM 
          0                 1           2             4    7     1       0.4036094297E-01       4    7    1         0.2125642024E+01      0.4445772545E+01
          0                 2           2             4    7     1      -0.3926054316E-02       4    7    1        -0.2125665873E+00      0.4445769590E+00
          0                 3           2             4    7     1       0.2673494000E-03       4    7    1         0.1487964497E-01      0.3112023839E-01
          0                 4           1             4    7     1      -0.1063808408E-04       4    7    1        -0.6085784103E-03      0.1272810681E-02

    ------------------------------------------------
       NWT REQUIRED            4 OUTER ITERATIONS 
       AND A TOTAL OF          7 INNER ITERATIONS.
    ------------------------------------------------

 NO OUTPUT CONTROL FOR STRESS PERIOD   24   TIME STEP   18
 
 SOLVING FOR HEAD 
                                                   Max.-Head-Change                         Max.-Flux-Residual
  Residual-Control   Outer-Iter.   Inner-Iter.     Column Row Layer    Maximum-Head-Change  Column Row Layer    Maximum-Flux-Residual          L2-NORM 
          0                 1           2             4    7     1       0.3982015410E-01       4    7    1         0.2097070621E+01      0.4394118461E+01
          0                 2           2             4    7     1      -0.3873449422E-02       4    7    1        -0.2097093868E+00      0.4394115347E+00
          0                 3           2             4    7     1       0.2637672110E-03       4    7    1         0.1467964143E-01      0.3075864424E-01
          0                 4           1             4    7     1      -0.1049554586E-04       4    7    1        -0.6003982803E-03      0.1258024000E-02

    ------------------------------------------------
       NWT REQUIRED            4 OUTER ITERATIONS 
       AND A TOTAL OF          7 INNER ITERATIONS.
    ------------------------------------------------

 NO OUTPUT CONTROL FOR STRESS PERIOD   24   TIME STEP   19
 
 SOLVING FOR HEAD 
                                                   Max.-Head-Change                         Max.-Flux-Residual
  Residual-Control   Outer-Iter.   Inner-Iter.     Column Row Layer    Maximum-Head-Change  Column Row Layer    Maximum-Flux-Residual          L2-NORM 
          0                 1           2             4    7     1       0.3928837317E-01       4    7    1         0.2068973136E+01      0.4343454187E+01
          0                 2           2             4    7     1      -0.3821720776E-02       4    7    1        -0.2068995797E+00      0.4343451045E+00
          0                 3           2             4    7     1       0.2602446904E-03       4    7    1         0.1448295539E-01      0.3040400782E-01
          0                 4           1             4    7     1      -0.1035538146E-04       4    7    1        -0.5923538083E-03      0.1243529115E-02

    ------------------------------------------------
       NWT REQUIRED            4 OUTER ITERATIONS 
       AND A TOTAL OF          7 INNER ITERATIONS.
    ------------------------------------------------

 NO OUTPUT CONTROL FOR STRESS PERIOD   24   TIME STEP   20
 
 SOLVING FOR HEAD 
                                                   Max.-Head-Change                         Max.-Flux-Residual
  Residual-Control   Outer-Iter.   Inner-Iter.     Column Row Layer    Maximum-Head-Change  Column Row Layer    Maximum-Flux-Residual          L2-NORM 
          0                 1           2             4    7     1       0.3876546426E-01       4    7    1         0.2041342691E+01      0.4293744024E+01
          0                 2           2             4    7     1      -0.3770855155E-02       4    7    1        -0.2041364778E+00      0.4293740864E+00
          0                 3           2             4    7     1       0.2567809385E-03       4    7    1         0.1428953872E-01      0.3005603439E-01
          0                 4           1             4    7     1      -0.1021755554E-04       4    7    1        -0.5844430593E-03      0.1229287580E-02

    ------------------------------------------------
       NWT REQUIRED            4 OUTER ITERATIONS 
       AND A TOTAL OF          7 INNER ITERATIONS.
    ------------------------------------------------

 NO OUTPUT CONTROL FOR STRESS PERIOD   24   TIME STEP   21
 
 SOLVING FOR HEAD 
                                                   Max.-Head-Change                         Max.-Flux-Residual
  Residual-Control   Outer-Iter.   Inner-Iter.     Column Row Layer    Maximum-Head-Change  Column Row Layer    Maximum-Flux-Residual          L2-NORM 
          0                 1           2             4    7     1       0.3825142959E-01       4    7    1         0.2014179538E+01      0.4244976163E+01
          0                 2           2             4    7     1      -0.3720852776E-02       4    7    1        -0.2014201064E+00      0.4244972921E+00
          0                 3           2             4    7     1       0.2533759700E-03       4    7    1         0.1409939319E-01      0.2971466831E-01
          0                 4           1             4    7     1      -0.1008206866E-04       4    7    1        -0.5766660875E-03      0.1215320061E-02

    ------------------------------------------------
       NWT REQUIRED            4 OUTER ITERATIONS 
       AND A TOTAL OF          7 INNER ITERATIONS.
    ------------------------------------------------

 NO OUTPUT CONTROL FOR STRESS PERIOD   24   TIME STEP   22
 
 SOLVING FOR HEAD 
                                                   Max.-Head-Change                         Max.-Flux-Residual
  Residual-Control   Outer-Iter.   Inner-Iter.     Column Row Layer    Maximum-Head-Change  Column Row Layer    Maximum-Flux-Residual          L2-NORM 
          0                 1           2             4    7     1       0.3774585773E-01       4    7    1         0.1987461893E+01      0.4197109009E+01
          0                 2           2             4    7     1      -0.3671673617E-02       4    7    1        -0.1987482873E+00      0.4197105803E+00
          0                 3           2             4    7     1       0.2500270591E-03       4    7    1         0.1391236627E-01      0.2937959378E-01
          0                 4           1             4    7     1      -0.9948812143E-05       4    7    1        -0.5690166663E-03      0.1201617202E-02

    ------------------------------------------------
       NWT REQUIRED            4 OUTER ITERATIONS 
       AND A TOTAL OF          7 INNER ITERATIONS.
    ------------------------------------------------

 NO OUTPUT CONTROL FOR STRESS PERIOD   24   TIME STEP   23
 
 SOLVING FOR HEAD 
                                                   Max.-Head-Change                         Max.-Flux-Residual
  Residual-Control   Outer-Iter.   Inner-Iter.     Column Row Layer    Maximum-Head-Change  Column Row Layer    Maximum-Flux-Residual          L2-NORM 
          0                 1           2             4    7     1       0.3724901965E-01       4    7    1         0.1961204924E+01      0.4150136868E+01
          0                 2           2             4    7     1      -0.3623344035E-02       4    7    1        -0.1961225371E+00      0.4150133077E+00
          0                 3           2             4    7     1       0.2467360015E-03       4    7    1         0.1372856418E-01      0.2905081630E-01
          0                 4           1             4    7     1      -0.9817858066E-05       4    7    1        -0.5614991544E-03      0.1188180548E-02

    ------------------------------------------------
       NWT REQUIRED            4 OUTER ITERATIONS 
       AND A TOTAL OF          7 INNER ITERATIONS.
    ------------------------------------------------

 NO OUTPUT CONTROL FOR STRESS PERIOD   24   TIME STEP   24
 
 SOLVING FOR HEAD 
                                                   Max.-Head-Change                         Max.-Flux-Residual
  Residual-Control   Outer-Iter.   Inner-Iter.     Column Row Layer    Maximum-Head-Change  Column Row Layer    Maximum-Flux-Residual          L2-NORM 
          0                 1           2             4    7     1       0.3676036366E-01       4    7    1         0.1935378880E+01      0.4104027696E+01
          0                 2           2             4    7     1      -0.3575810368E-02       4    7    1        -0.1935398806E+00      0.4104023758E+00
          0                 3           2             4    7     1       0.2434991424E-03       4    7    1         0.1354777865E-01      0.2872799165E-01
          0                 4           1             4    7     1      -0.9689060215E-05       4    7    1        -0.5541050029E-03      0.1174967890E-02

    ------------------------------------------------
       NWT REQUIRED            4 OUTER ITERATIONS 
       AND A TOTAL OF          7 INNER ITERATIONS.
    ------------------------------------------------

 NO OUTPUT CONTROL FOR STRESS PERIOD   24   TIME STEP   25
 
 SOLVING FOR HEAD 
                                                   Max.-Head-Change                         Max.-Flux-Residual
  Residual-Control   Outer-Iter.   Inner-Iter.     Column Row Layer    Maximum-Head-Change  Column Row Layer    Maximum-Flux-Residual          L2-NORM 
          0                 1           2             4    7     1       0.3628015830E-01       4    7    1         0.1909998961E+01      0.4058754779E+01
          0                 2           2             4    7     1      -0.3529098735E-02       4    7    1        -0.1910018380E+00      0.4058727139E+00
          0                 3           2             4    7     1       0.2403182607E-03       4    7    1         0.1337011607E-01      0.2841095998E-01
          0                 4           1             4    7     1      -0.9562489967E-05       4    7    1        -0.5468385987E-03      0.1161999667E-02

    ------------------------------------------------
       NWT REQUIRED            4 OUTER ITERATIONS 
       AND A TOTAL OF          7 INNER ITERATIONS.
    ------------------------------------------------

 NO OUTPUT CONTROL FOR STRESS PERIOD   24   TIME STEP   26
 
 SOLVING FOR HEAD 
                                                   Max.-Head-Change                         Max.-Flux-Residual
  Residual-Control   Outer-Iter.   Inner-Iter.     Column Row Layer    Maximum-Head-Change  Column Row Layer    Maximum-Flux-Residual          L2-NORM 
          0                 1           2             4    7     1       0.3580798561E-01       4    7    1         0.1885042584E+01      0.4014299153E+01
          0                 2           2             4    7     1      -0.3483168482E-02       4    7    1        -0.1885061509E+00      0.4014295512E+00
          0                 3           2             4    7     1       0.2371905878E-03       4    7    1         0.1319541836E-01      0.2809991095E-01
          0                 4           1             4    7     1      -0.9438036916E-05       4    7    1        -0.5396934482E-03      0.1149267959E-02

    ------------------------------------------------
       NWT REQUIRED            4 OUTER ITERATIONS 
       AND A TOTAL OF          7 INNER ITERATIONS.
    ------------------------------------------------

 NO OUTPUT CONTROL FOR STRESS PERIOD   24   TIME STEP   27
 
 SOLVING FOR HEAD 
                                                   Max.-Head-Change                         Max.-Flux-Residual
  Residual-Control   Outer-Iter.   Inner-Iter.     Column Row Layer    Maximum-Head-Change  Column Row Layer    Maximum-Flux-Residual          L2-NORM 
          0                 1           2             4    7     1       0.3534397394E-01       4    7    1         0.1860517287E+01      0.3970662535E+01
          0                 2           2             4    7     1      -0.3438032092E-02       4    7    1        -0.1860535731E+00      0.3970658650E+00
          0                 3           2             4    7     1       0.2341169740E-03       4    7    1         0.1302373830E-01      0.2779447401E-01
          0                 4           1             4    7     1      -0.9315734794E-05       4    7    1        -0.5326717253E-03      0.1136796371E-02

    ------------------------------------------------
       NWT REQUIRED            4 OUTER ITERATIONS 
       AND A TOTAL OF          7 INNER ITERATIONS.
    ------------------------------------------------

 NO OUTPUT CONTROL FOR STRESS PERIOD   24   TIME STEP   28
 
 SOLVING FOR HEAD 
                                                   Max.-Head-Change                         Max.-Flux-Residual
  Residual-Control   Outer-Iter.   Inner-Iter.     Column Row Layer    Maximum-Head-Change  Column Row Layer    Maximum-Flux-Residual          L2-NORM 
          0                 1           2             4    7     1       0.3488770720E-01       4    7    1         0.1836400515E+01      0.3927807742E+01
          0                 2           2             4    7     1      -0.3393649089E-02       4    7    1        -0.1836418489E+00      0.3927803889E+00
          0                 3           2             4    7     1       0.2310946630E-03       4    7    1         0.1285491799E-01      0.2749450112E-01
          0                 4           1             4    7     1      -0.9195474229E-05       4    7    1        -0.5257669573E-03      0.1124517850E-02

    ------------------------------------------------
       NWT REQUIRED            4 OUTER ITERATIONS 
       AND A TOTAL OF          7 INNER ITERATIONS.
    ------------------------------------------------

 NO OUTPUT CONTROL FOR STRESS PERIOD   24   TIME STEP   29
 
 SOLVING FOR HEAD 
                                                   Max.-Head-Change                         Max.-Flux-Residual
  Residual-Control   Outer-Iter.   Inner-Iter.     Column Row Layer    Maximum-Head-Change  Column Row Layer    Maximum-Flux-Residual          L2-NORM 
          0                 1           2             4    7     1       0.3443931967E-01       4    7    1         0.1812699906E+01      0.3885710084E+01
          0                 2           2             4    7     1      -0.3350032537E-02       4    7    1        -0.1812717423E+00      0.3885705883E+00
          0                 3           2             4    7     1       0.2281245438E-03       4    7    1         0.1268901086E-01      0.2719980154E-01
          0                 4           1             4    7     1      -0.9077290567E-05       4    7    1        -0.5189813567E-03      0.1112446326E-02

    ------------------------------------------------
       NWT REQUIRED            4 OUTER ITERATIONS 
       AND A TOTAL OF          7 INNER ITERATIONS.
    ------------------------------------------------

 NO OUTPUT CONTROL FOR STRESS PERIOD   24   TIME STEP   30



 STREAM LISTING     PERIOD     24   STEP       30

 LAYER ROW COL. STREAM  RCH.  FLOW INTO     FLOW TO   FLOW OUT OF   OVRLND.     DIRECT     STREAM       STREAM     STREAM     STREAM   STREAMBED  STREAMBED
                SEG.NO.  NO.  STRM. RCH.    AQUIFER    STRM. RCH.    RUNOFF     PRECIP       ET          HEAD       DEPTH      WIDTH   CONDCTNC.   GRADIENT

   1    1    1     1     1    1.5750E+01  1.9239E-01   1.5558E+01  0.000E+00  0.000E+00  0.000E+00  1.09407E+03  1.025E+00  1.062E+01  4.780E-02  1.342E+00
   1    2    2     1     2    1.5558E+01  2.9660E-01   1.5261E+01  0.000E+00  0.000E+00  0.000E+00  1.08908E+03  1.020E+00  1.054E+01  7.378E-02  1.340E+00
   1    3    3     1     3    1.5261E+01  2.5164E-01   1.5010E+01  0.000E+00  0.000E+00  0.000E+00  1.08343E+03  1.015E+00  1.045E+01  6.268E-02  1.338E+00
   1    3    4     1     4    1.5010E+01  2.3064E-01   1.4779E+01  0.000E+00  0.000E+00  0.000E+00  1.07842E+03  1.010E+00  1.036E+01  5.752E-02  1.337E+00
   1    4    5     2     1    1.2779E+01  2.9653E-01   1.2482E+01  0.000E+00  0.000E+00  0.000E+00  1.07274E+03  8.017E-01  1.200E+01  7.800E-02  1.267E+00
   1    5    6     2     2    1.2482E+01  2.2750E-01   1.2255E+01  0.000E+00  0.000E+00  0.000E+00  1.06730E+03  7.917E-01  1.200E+01  6.000E-02  1.264E+00
   1    6    6     2     3    1.2255E+01  2.2697E-01   1.2028E+01  0.000E+00  0.000E+00  0.000E+00  1.06258E+03  7.829E-01  1.200E+01  6.000E-02  1.261E+00
   1    7    6     2     4    1.2028E+01  2.2645E-01   1.1802E+01  0.000E+00  0.000E+00  0.000E+00  1.05785E+03  7.741E-01  1.200E+01  6.000E-02  1.258E+00
   1    8    6     2     5    1.1802E+01  2.2591E-01   1.1576E+01  0.000E+00  0.000E+00  0.000E+00  1.05312E+03  7.652E-01  1.200E+01  6.000E-02  1.255E+00
   1    3    5     3     1    2.0000E+00  2.8252E-01   1.7175E+00  0.000E+00  0.000E+00  0.000E+00  1.07555E+03  1.909E+00  9.636E+00  7.227E-02  1.955E+00
   1    3    6     3     2    1.7175E+00  2.4905E-01   1.4684E+00  0.000E+00  0.000E+00  0.000E+00  1.07264E+03  1.727E+00  8.909E+00  6.682E-02  1.864E+00
   1    3    7     3     3    1.4684E+00  1.9718E-01   1.2712E+00  0.000E+00  0.000E+00  0.000E+00  1.06987E+03  1.555E+00  8.218E+00  5.547E-02  1.777E+00
   1    4    8     3     4    1.2712E+00  2.2567E-01   1.0456E+00  0.000E+00  0.000E+00  0.000E+00  1.06682E+03  1.364E+00  7.455E+00  6.709E-02  1.682E+00
   1    5    8     3     5    1.0456E+00  1.5790E-01   8.8768E-01  0.000E+00  0.000E+00  0.000E+00  1.06362E+03  1.164E+00  6.655E+00  4.991E-02  1.582E+00
   1    6    8     3     6    8.8768E-01  5.5980E-02   8.3170E-01  0.000E+00  0.000E+00  0.000E+00  1.06158E+03  1.036E+00  6.145E+00  1.844E-02  1.518E+00
   1    5   10     4     1    1.0000E+01  9.0919E-02   9.9091E+00  0.000E+00  0.000E+00  0.000E+00  1.07836E+03  6.368E-01  1.000E+01  2.500E-02  1.212E+00
   1    5    9     4     2    9.9091E+00  1.8158E-01   9.7275E+00  0.000E+00  0.000E+00  0.000E+00  1.07154E+03  6.315E-01  1.000E+01  5.000E-02  1.211E+00
   1    6    8     4     3    9.7275E+00  1.2689E-01   9.6006E+00  0.000E+00  0.000E+00  0.000E+00  1.06381E+03  6.256E-01  1.000E+01  3.500E-02  1.209E+00
   1    6    8     5     1    1.0432E+01  2.2686E-01   1.0205E+01  0.000E+00  0.000E+00  0.000E+00  1.05868E+03  6.790E-01  1.542E+01  6.166E-02  1.226E+00
   1    7    7     5     2    1.0205E+01  2.7894E-01   9.9265E+00  0.000E+00  0.000E+00  0.000E+00  1.05417E+03  6.732E-01  1.519E+01  7.594E-02  1.224E+00
   1    8    7     5     3    9.9265E+00  1.9221E-01   9.7343E+00  0.000E+00  0.000E+00  0.000E+00  1.04992E+03  6.676E-01  1.497E+01  5.241E-02  1.223E+00
   1    8    6     5     4    9.7343E+00  1.3577E-01   9.5985E+00  0.000E+00  0.000E+00  0.000E+00  1.04691E+03  6.637E-01  1.482E+01  3.706E-02  1.221E+00
   1    9    6     6     1    2.1174E+01  2.4608E-01   2.0928E+01  0.000E+00  0.000E+00  0.000E+00  1.04383E+03  1.101E+00  1.200E+01  6.000E-02  1.367E+00
   1   10    7     6     2    2.0928E+01  2.4562E-01   2.0682E+01  0.000E+00  0.000E+00  0.000E+00  1.03928E+03  1.094E+00  1.200E+01  6.000E-02  1.365E+00
   1   11    7     6     3    2.0682E+01  2.4515E-01   2.0437E+01  0.000E+00  0.000E+00  0.000E+00  1.03472E+03  1.086E+00  1.200E+01  6.000E-02  1.362E+00
   1   12    7     6     4    2.0437E+01  2.4469E-01   2.0193E+01  0.000E+00  0.000E+00  0.000E+00  1.03017E+03  1.078E+00  1.200E+01  6.000E-02  1.359E+00
   1   13    7     6     5    2.0193E+01  1.1393E-03   2.0191E+01  0.000E+00  0.000E+00  0.000E+00  1.02698E+03  1.074E+00  1.200E+01  2.400E-02  1.582E-02
   1   14    9     7     1    1.5000E+02  1.3421E+00   1.4866E+02  0.000E+00  0.000E+00  0.000E+00  1.03987E+03  2.288E+00  5.529E+01  5.593E-01  7.999E-01
   1   13    8     7     2    1.4866E+02  1.8681E+00   1.4679E+02  0.000E+00  0.000E+00  0.000E+00  1.03478E+03  2.279E+00  5.526E+01  6.148E-01  1.013E+00
   1   13    7     7     3    1.4679E+02  1.5377E+00   1.4525E+02  0.000E+00  0.000E+00  0.000E+00  1.02969E+03  2.270E+00  5.522E+01  5.584E-01  9.179E-01
   1   13    6     8     1    1.6544E+02  9.7195E-01   1.6447E+02  0.000E+00  0.000E+00  0.000E+00  1.02479E+03  2.919E+00  4.233E+01  4.313E-01  7.511E-01
   1   13    5     8     2    1.6447E+02  2.3454E-01   1.6424E+02  0.000E+00  0.000E+00  0.000E+00  1.01854E+03  2.915E+00  4.227E+01  4.307E-01  1.815E-01
   1   13    4     8     3    1.6424E+02 -2.2128E+00   1.6645E+02  0.000E+00  0.000E+00  0.000E+00  1.01230E+03  2.922E+00  4.236E+01  4.317E+00 -1.709E-01
   1   13    3     8     4    1.6645E+02 -3.5541E+00   1.7000E+02  0.000E+00  0.000E+00  0.000E+00  1.00607E+03  2.941E+00  4.264E+01  4.345E+00 -2.727E-01
   1   13    2     8     5    1.7000E+02 -2.5628E+00   1.7257E+02  0.000E+00  0.000E+00  0.000E+00  9.99836E+02  2.961E+00  4.293E+01  4.375E+00 -1.953E-01
   1   13    1     8     6    1.7257E+02 -1.9837E+00   1.7455E+02  0.000E+00  0.000E+00  0.000E+00  9.94850E+02  2.975E+00  4.314E+01  2.638E+00 -2.507E-01
   1    8    6     9     1    0.0000E+00  0.0000E+00   0.0000E+00  0.000E+00  0.000E+00  0.000E+00  1.07875E+03  0.000E+00  4.000E+00  0.000E+00  1.000E+00
   1    8    5     9     2    0.0000E+00  0.0000E+00   0.0000E+00  0.000E+00  0.000E+00  0.000E+00  1.07825E+03  0.000E+00  4.000E+00  0.000E+00  1.000E+00





UNSATURATED ZONE PACKAGE VOLUMETRIC BUDGET FOR  TIME STEP    30 STRESS PERIOD   24
  ------------------------------------------------------------------------------



     CUMULATIVE VOLUMES      L**3       RATES FOR THIS TIME STEP      L**3/T
     ------------------                 ------------------------

           IN:                                      IN:
           ---                                      ---
        INFILTRATION =   859117213.0779          INFILTRATION =           0.8475

          OUT:                                     OUT:
          ----                                     ----
              UZF ET =   858115320.8291                UZF ET =           0.7500
        UZF RECHARGE =       73224.0000          UZF RECHARGE =       0.0000E+00

            IN - OUT =      928668.2488              IN - OUT =       9.7500E-02

          STORAGE:                                 STORAGE:
          --------                                 --------
      STORAGE CHANGE =      928668.2175        STORAGE CHANGE =       9.7500E-02

 PERCENT DISCREPANCY IS DIFFERENCE BETWEEN IN-OUT MINUS CHANGE IN STORAGE
 DIVIDED BY THE AVERAGE OF IN AND OUT TIMES 100

 PERCENT DISCREPANCY =           0.00     PERCENT DISCREPANCY =           0.00






1
  VOLUMETRIC BUDGET FOR AGRICULTURAL FIELDS AT  END OF TIME STEP   30, STRESS PERIOD  24
  ------------------------------------------------------------------------------

     CUMULATIVE VOLUMES      L**3       RATES FOR THIS TIME STEP      L**3/T
     ------------------                 ------------------------

           IN:                                      IN:
           ---                                      ---
               AG WELLS  =   807776960.0000                 AG WELLS  =           0.0000
      DIVERSION SEGMENTS =           0.0000        DIVERSION SEGMENTS =           0.0000
       IRRIGATION PONDS  =           0.0000         IRRIGATION PONDS  =           0.0000
           GW IRRIGATION =           0.0000             GW IRRIGATION =           0.0000
           SW IRRIGATION =           0.0000             SW IRRIGATION =           0.0000
        SYSTEM LOSSES GW =           0.0000          SYSTEM LOSSES GW =           0.0000
        SYSTEM LOSSES SW =           0.0000          SYSTEM LOSSES SW =           0.0000

                TOTAL IN =   807776960.0000                  TOTAL IN =           0.0000

          OUT:                                     OUT:
          ----                                     ----
               AG WELLS  =           0.0000                 AG WELLS  =           0.0000
      DIVERSION SEGMENTS =           0.0000        DIVERSION SEGMENTS =           0.0000
       IRRIGATION PONDS  =           0.0000         IRRIGATION PONDS  =           0.0000
           GW IRRIGATION =   807776960.0000             GW IRRIGATION =           0.0000
           SW IRRIGATION =           0.0000             SW IRRIGATION =           0.0000
        SYSTEM LOSSES GW =           0.0000          SYSTEM LOSSES GW =           0.0000
        SYSTEM LOSSES SW =           0.0000          SYSTEM LOSSES SW =           0.0000

               TOTAL OUT =   807776960.0000                 TOTAL OUT =           0.0000

                IN - OUT =           0.0000                  IN - OUT =           0.0000

     PERCENT DISCREPANCY =           0.00         PERCENT DISCREPANCY =           0.00



1
  VOLUMETRIC BUDGET FOR ENTIRE MODEL AT END OF TIME STEP   30, STRESS PERIOD  24
  ------------------------------------------------------------------------------

     CUMULATIVE VOLUMES      L**3       RATES FOR THIS TIME STEP      L**3/T
     ------------------                 ------------------------

           IN:                                      IN:
           ---                                      ---
             STORAGE     =  1073235904.0000               STORAGE     =          10.3727
       CONSTANT HEAD     =           0.0000         CONSTANT HEAD     =           0.0000
     HEAD DEP BOUNDS     =    17311600.0000       HEAD DEP BOUNDS     =           0.2862
      STREAM LEAKAGE     =   732759168.0000        STREAM LEAKAGE     =          11.5132
        UZF RECHARGE     =       73223.9531          UZF RECHARGE     =           0.0000
               GW ET     =           0.0000                 GW ET     =           0.0000
     SURFACE LEAKAGE     =           0.0000       SURFACE LEAKAGE     =           0.0000
           AG WELLS      =           0.0000             AG WELLS      =           0.0000

                TOTAL IN =  1823379840.0000                  TOTAL IN =          22.1721

          OUT:                                     OUT:
          ----                                     ----
             STORAGE     =   354416032.0000               STORAGE     =          11.5697
       CONSTANT HEAD     =           0.0000         CONSTANT HEAD     =           0.0000
     HEAD DEP BOUNDS     =    17705230.0000       HEAD DEP BOUNDS     =           0.2889
      STREAM LEAKAGE     =   636170240.0000        STREAM LEAKAGE     =          10.3134
        UZF RECHARGE     =           0.0000          UZF RECHARGE     =           0.0000
               GW ET     =     7311766.5000                 GW ET     =           0.0000
     SURFACE LEAKAGE     =           0.0000       SURFACE LEAKAGE     =           0.0000
           AG WELLS      =   807776960.0000             AG WELLS      =           0.0000

               TOTAL OUT =  1823380224.0000                 TOTAL OUT =          22.1721

                IN - OUT =        -384.0000                  IN - OUT =       9.5367E-06

     PERCENT DISCREPANCY =          -0.00         PERCENT DISCREPANCY =           0.00






         TIME SUMMARY AT END OF TIME STEP   30 IN STRESS PERIOD   24
                    SECONDS     MINUTES      HOURS       DAYS        YEARS
                    -----------------------------------------------------------
   TIME STEP LENGTH  87667.      1461.1      24.352      1.0147     2.77799E-03
 STRESS PERIOD TIME 2.63000E+06  43833.      730.56      30.440     8.33397E-02
         TOTAL TIME 6.05767E+07 1.00961E+06  16827.      701.12      1.9196    
1
1
                            STRESS PERIOD NO.   25, LENGTH =   2630000.    
                            -----------------------------------------------

                              NUMBER OF TIME STEPS =    30

                               MULTIPLIER FOR DELT =     1.000

                            INITIAL TIME STEP SIZE =   87666.66    

 REUSING NON-PARAMETER GHB CELLS FROM LAST STRESS PERIOD

      2 GHB CELLS

 REUSING STREAM SEGMENT DATA FROM LAST STRESS PERIOD



            AREAL INFILTRATION RATE
 READING ON UNIT   19 WITH FORMAT: (FREE)              

            1           2           3           4           5           6           7           8           9          10
 ........................................................................................................................
   1   1.0000E-10  2.0000E-10   0.000       0.000       0.000       0.000       0.000       0.000       0.000       0.000    
   2   2.0000E-10  1.0000E-10  2.0000E-10   0.000       0.000      8.0000E-10  8.0000E-10  5.0000E-10   0.000       0.000    
   3    0.000      5.0000E-10  1.0000E-10  1.0000E-10  8.0000E-10  8.0000E-10  5.0000E-10  5.0000E-10   0.000       0.000    
   4   8.0000E-10  5.0000E-10  1.0000E-10  1.0000E-10  1.0000E-10  1.0000E-10  1.0000E-10  1.0000E-10  2.0000E-10   0.000    
   5   8.0000E-10  5.0000E-10  1.0000E-10  1.0000E-10  1.0000E-10  1.0000E-10  1.0000E-10  1.0000E-10  1.0000E-10  1.0000E-10
   6   8.0000E-10  5.0000E-10  5.0000E-10  2.0000E-10  2.0000E-10  1.0000E-10  1.0000E-10  1.0000E-10  1.0000E-10  5.0000E-10
   7   8.0000E-10  5.0000E-10  5.0000E-10  2.0000E-10  2.0000E-10  1.0000E-10  1.0000E-10  2.0000E-10  2.0000E-10   0.000    
   8    0.000      5.0000E-10  5.0000E-10  2.0000E-10  2.0000E-10  1.0000E-10  1.0000E-10  2.0000E-10  5.0000E-10   0.000    
   9    0.000      5.0000E-10  5.0000E-10  2.0000E-10  2.0000E-10  1.0000E-10  1.0000E-10  2.0000E-10  5.0000E-10   0.000    
  10    0.000      5.0000E-10  5.0000E-10  2.0000E-10  2.0000E-10  1.0000E-10  1.0000E-10  2.0000E-10  5.0000E-10  8.0000E-10
  11    0.000      1.0000E-10  1.0000E-10  1.0000E-10  1.0000E-10  1.0000E-10  1.0000E-10  2.0000E-10  5.0000E-10   0.000    
  12   1.0000E-10  1.0000E-10  1.0000E-10  1.0000E-10  1.0000E-10  1.0000E-10  1.0000E-10  1.0000E-10  2.0000E-10   0.000    
  13   1.0000E-10  1.0000E-10  2.0000E-10  2.0000E-10  2.0000E-10  2.0000E-10  2.0000E-10  1.0000E-10  1.0000E-10   0.000    
  14    0.000      2.0000E-10  5.0000E-10  5.0000E-10  5.0000E-10  5.0000E-10  5.0000E-10  2.0000E-10  1.0000E-10   0.000    
  15    0.000       0.000      8.0000E-10  8.0000E-10  8.0000E-10  8.0000E-10   0.000       0.000       0.000       0.000    

                  ET RATE =  5.000000E-10

 USING ET EXTINCTION DEPTH FROM PREVIOUS STRESS PERIOD. CURRENT PERIOD IS:      25

 USING EXTINCTION WATER CONTENT FROM PREVIOUS STRESS PERIOD. CURRENT PERIOD IS:      25

 USING AIR ENTRY PRESSURE FROM PREVIOUS STRESS PERIOD. CURRENT PERIOD IS:      25

 USING ROOT PRESSURE HEAD FROM PREVIOUS STRESS PERIOD. CURRENT PERIOD IS:      25

 USING ROOT ACTIVITY FROM PREVIOUS STRESS PERIOD. CURRENT PERIOD IS:      25

 PROCESSING AG STRESS PERIOD DATA

 READING AG STRESS PERIOD DATA

 READING IRRIGATION SEGMENT

 READING IRRIGATION WELL

 READING SUPPLEMENTAL WELL

 NO IRRPOND OR REUSING IRRPOND DATA FROM LAST STRESS PERIOD

 END PROCESSING AG STRESS PERIOD DATA OPTIONS
 
 SOLVING FOR HEAD 
                                                   Max.-Head-Change                         Max.-Flux-Residual
  Residual-Control   Outer-Iter.   Inner-Iter.     Column Row Layer    Maximum-Head-Change  Column Row Layer    Maximum-Flux-Residual          L2-NORM 
          0                 1           2             4    7     1       0.3399852425E-01       4    7    1         0.1789400513E+01      0.3845535652E+01
          0                 2           2             4    7     1      -0.3307154508E-02       4    7    1        -0.1789417585E+00      0.3845515384E+00
          0                 3           2             4    7     1       0.2252047151E-03       4    7    1         0.1252591235E-01      0.2691833901E-01
          0                 4           1             4    7     1      -0.8961107477E-05       4    7    1        -0.5123105934E-03      0.1100949504E-02

    ------------------------------------------------
       NWT REQUIRED            4 OUTER ITERATIONS 
       AND A TOTAL OF          7 INNER ITERATIONS.
    ------------------------------------------------

 NO OUTPUT CONTROL FOR STRESS PERIOD   25   TIME STEP    1
 
 SOLVING FOR HEAD 
                                                   Max.-Head-Change                         Max.-Flux-Residual
  Residual-Control   Outer-Iter.   Inner-Iter.     Column Row Layer    Maximum-Head-Change  Column Row Layer    Maximum-Flux-Residual          L2-NORM 
          0                 1           2             4    7     1       0.3356517404E-01       4    7    1         0.1766494754E+01      0.3805330282E+01
          0                 2           2             4    7     1      -0.3265000711E-02       4    7    1        -0.1766511392E+00      0.3805303798E+00
          0                 3           2             4    7     1       0.2223342041E-03       4    7    1         0.1236556934E-01      0.2663679012E-01
          0                 4           1             4    7     1      -0.8846887312E-05       4    7    1        -0.5057525616E-03      0.1089421616E-02

    ------------------------------------------------
       NWT REQUIRED            4 OUTER ITERATIONS 
       AND A TOTAL OF          7 INNER ITERATIONS.
    ------------------------------------------------

 NO OUTPUT CONTROL FOR STRESS PERIOD   25   TIME STEP    2
 
 SOLVING FOR HEAD 
                                                   Max.-Head-Change                         Max.-Flux-Residual
  Residual-Control   Outer-Iter.   Inner-Iter.     Column Row Layer    Maximum-Head-Change  Column Row Layer    Maximum-Flux-Residual          L2-NORM 
          0                 1           2             4    7     1       0.3313927093E-01       4    7    1         0.1743982317E+01      0.3765373642E+01
          0                 2           2             4    7     1      -0.3223571330E-02       4    7    1        -0.1743998533E+00      0.3765349288E+00
          0                 3           2             4    7     1       0.2195130230E-03       4    7    1         0.1220797966E-01      0.2635712889E-01
          0                 4           1             4    7     1      -0.8734629843E-05       4    7    1        -0.4993071300E-03      0.1077994275E-02

    ------------------------------------------------
       NWT REQUIRED            4 OUTER ITERATIONS 
       AND A TOTAL OF          7 INNER ITERATIONS.
    ------------------------------------------------

 NO OUTPUT CONTROL FOR STRESS PERIOD   25   TIME STEP    3
 
 SOLVING FOR HEAD 
                                                   Max.-Head-Change                         Max.-Flux-Residual
  Residual-Control   Outer-Iter.   Inner-Iter.     Column Row Layer    Maximum-Head-Change  Column Row Layer    Maximum-Flux-Residual          L2-NORM 
          0                 1           2             4    7     1       0.3272053026E-01       4    7    1         0.1721848691E+01      0.3726091843E+01
          0                 2           2             4    7     1      -0.3182838677E-02       4    7    1        -0.1721864495E+00      0.3726068946E+00
          0                 3           2             4    7     1       0.2167392864E-03       4    7    1         0.1205304172E-01      0.2608235068E-01
          0                 4           1             4    7     1      -0.8624260121E-05       4    7    1        -0.4929701697E-03      0.1067196777E-02

    ------------------------------------------------
       NWT REQUIRED            4 OUTER ITERATIONS 
       AND A TOTAL OF          7 INNER ITERATIONS.
    ------------------------------------------------

 NO OUTPUT CONTROL FOR STRESS PERIOD   25   TIME STEP    4
 
 SOLVING FOR HEAD 
                                                   Max.-Head-Change                         Max.-Flux-Residual
  Residual-Control   Outer-Iter.   Inner-Iter.     Column Row Layer    Maximum-Head-Change  Column Row Layer    Maximum-Flux-Residual          L2-NORM 
          0                 1           2             4    7     1       0.3230908830E-01       4    7    1         0.1700101033E+01      0.3687492732E+01
          0                 2           2             4    7     1      -0.3142816005E-02       4    7    1        -0.1700116438E+00      0.3687471049E+00
          0                 3           2             4    7     1       0.2140138963E-03       4    7    1         0.1190080562E-01      0.2581202364E-01
          0                 4           1             4    7     1      -0.8515814181E-05       4    7    1        -0.4867436899E-03      0.1055684998E-02

    ------------------------------------------------
       NWT REQUIRED            4 OUTER ITERATIONS 
       AND A TOTAL OF          7 INNER ITERATIONS.
    ------------------------------------------------

 NO OUTPUT CONTROL FOR STRESS PERIOD   25   TIME STEP    5
 
 SOLVING FOR HEAD 
                                                   Max.-Head-Change                         Max.-Flux-Residual
  Residual-Control   Outer-Iter.   Inner-Iter.     Column Row Layer    Maximum-Head-Change  Column Row Layer    Maximum-Flux-Residual          L2-NORM 
          0                 1           2             4    7     1       0.3190453289E-01       4    7    1         0.1678717186E+01      0.3649553424E+01
          0                 2           2             4    7     1      -0.3103463222E-02       4    7    1        -0.1678732201E+00      0.3649533122E+00
          0                 3           2             4    7     1       0.2113341233E-03       4    7    1         0.1175111627E-01      0.2554646655E-01
          0                 4           1             4    7     1      -0.8409183343E-05       4    7    1        -0.4806213867E-03      0.1044840087E-02

    ------------------------------------------------
       NWT REQUIRED            4 OUTER ITERATIONS 
       AND A TOTAL OF          7 INNER ITERATIONS.
    ------------------------------------------------

 NO OUTPUT CONTROL FOR STRESS PERIOD   25   TIME STEP    6
 
 SOLVING FOR HEAD 
                                                   Max.-Head-Change                         Max.-Flux-Residual
  Residual-Control   Outer-Iter.   Inner-Iter.     Column Row Layer    Maximum-Head-Change  Column Row Layer    Maximum-Flux-Residual          L2-NORM 
          0                 1           2             4    7     1       0.3150686481E-01       4    7    1         0.1657697698E+01      0.3612252359E+01
          0                 2           2             4    7     1      -0.3064780404E-02       4    7    1        -0.1657712333E+00      0.3612232783E+00
          0                 3           2             4    7     1       0.2086999725E-03       4    7    1         0.1160397750E-01      0.2528535143E-01
          0                 4           1             4    7     1      -0.8304368182E-05       4    7    1        -0.4746034122E-03      0.1034157177E-02

    ------------------------------------------------
       NWT REQUIRED            4 OUTER ITERATIONS 
       AND A TOTAL OF          7 INNER ITERATIONS.
    ------------------------------------------------

 NO OUTPUT CONTROL FOR STRESS PERIOD   25   TIME STEP    7
 
 SOLVING FOR HEAD 
                                                   Max.-Head-Change                         Max.-Flux-Residual
  Residual-Control   Outer-Iter.   Inner-Iter.     Column Row Layer    Maximum-Head-Change  Column Row Layer    Maximum-Flux-Residual          L2-NORM 
          0                 1           2             4    7     1       0.3111608094E-01       4    7    1         0.1637042611E+01      0.3575582916E+01
          0                 2           2             4    7     1      -0.3026767247E-02       4    7    1        -0.1637056878E+00      0.3575564342E+00
          0                 3           2             4    7     1       0.2061114225E-03       4    7    1         0.1145938958E-01      0.2502869226E-01
          0                 4           1             4    7     1      -0.8201367663E-05       4    7    1        -0.4686897569E-03      0.1023695194E-02

    ------------------------------------------------
       NWT REQUIRED            4 OUTER ITERATIONS 
       AND A TOTAL OF          7 INNER ITERATIONS.
    ------------------------------------------------

 NO OUTPUT CONTROL FOR STRESS PERIOD   25   TIME STEP    8
 
 SOLVING FOR HEAD 
                                                   Max.-Head-Change                         Max.-Flux-Residual
  Residual-Control   Outer-Iter.   Inner-Iter.     Column Row Layer    Maximum-Head-Change  Column Row Layer    Maximum-Flux-Residual          L2-NORM 
          0                 1           2             4    7     1       0.3073177381E-01       4    7    1         0.1616729840E+01      0.3539520348E+01
          0                 2           2             4    7     1      -0.2989382297E-02       4    7    1        -0.1616743748E+00      0.3538971262E+00
          0                 3           2             4    7     1       0.2035656510E-03       4    7    1         0.1131719796E-01      0.2477257821E-01
          0                 4           1             4    7     1      -0.8100068729E-05       4    7    1        -0.4628740987E-03      0.1013196229E-02

    ------------------------------------------------
       NWT REQUIRED            4 OUTER ITERATIONS 
       AND A TOTAL OF          7 INNER ITERATIONS.
    ------------------------------------------------

 NO OUTPUT CONTROL FOR STRESS PERIOD   25   TIME STEP    9
 
 SOLVING FOR HEAD 
                                                   Max.-Head-Change                         Max.-Flux-Residual
  Residual-Control   Outer-Iter.   Inner-Iter.     Column Row Layer    Maximum-Head-Change  Column Row Layer    Maximum-Flux-Residual          L2-NORM 
          0                 1           2             4    7     1       0.3035409689E-01       4    7    1         0.1596767589E+01      0.3504099566E+01
          0                 2           2             4    7     1      -0.2952645935E-02       4    7    1        -0.1596781146E+00      0.3504083005E+00
          0                 3           2             4    7     1       0.2010640460E-03       4    7    1         0.1117746002E-01      0.2452836573E-01
          0                 4           1             4    7     1      -0.8000527218E-05       4    7    1        -0.4571587995E-03      0.1003195856E-02

    ------------------------------------------------
       NWT REQUIRED            4 OUTER ITERATIONS 
       AND A TOTAL OF          7 INNER ITERATIONS.
    ------------------------------------------------

 NO OUTPUT CONTROL FOR STRESS PERIOD   25   TIME STEP   10
 
 SOLVING FOR HEAD 
                                                   Max.-Head-Change                         Max.-Flux-Residual
  Residual-Control   Outer-Iter.   Inner-Iter.     Column Row Layer    Maximum-Head-Change  Column Row Layer    Maximum-Flux-Residual          L2-NORM 
          0                 1           2             4    7     1       0.2998277588E-01       4    7    1         0.1577141596E+01      0.3469331083E+01
          0                 2           2             4    7     1      -0.2916526026E-02       4    7    1        -0.1577154813E+00      0.3469315037E+00
          0                 3           2             4    7     1       0.1986044194E-03       4    7    1         0.1104007596E-01      0.2428497639E-01
          0                 4           1             4    7     1      -0.7902656785E-05       4    7    1        -0.4515398034E-03      0.9932497631E-03

    ------------------------------------------------
       NWT REQUIRED            4 OUTER ITERATIONS 
       AND A TOTAL OF          7 INNER ITERATIONS.
    ------------------------------------------------

 NO OUTPUT CONTROL FOR STRESS PERIOD   25   TIME STEP   11
 
 SOLVING FOR HEAD 
                                                   Max.-Head-Change                         Max.-Flux-Residual
  Residual-Control   Outer-Iter.   Inner-Iter.     Column Row Layer    Maximum-Head-Change  Column Row Layer    Maximum-Flux-Residual          L2-NORM 
          0                 1           2             4    7     1       0.2961769140E-01       4    7    1         0.1557845242E+01      0.3435132460E+01
          0                 2           2             4    7     1      -0.2881012772E-02       4    7    1        -0.1557858128E+00      0.3435116876E+00
          0                 3           2             4    7     1       0.1961861032E-03       4    7    1         0.1090499942E-01      0.2404559356E-01
          0                 4           1             4    7     1      -0.7806429567E-05       4    7    1        -0.4460151504E-03      0.9834493056E-03

    ------------------------------------------------
       NWT REQUIRED            4 OUTER ITERATIONS 
       AND A TOTAL OF          7 INNER ITERATIONS.
    ------------------------------------------------

 NO OUTPUT CONTROL FOR STRESS PERIOD   25   TIME STEP   12
 
 SOLVING FOR HEAD 
                                                   Max.-Head-Change                         Max.-Flux-Residual
  Residual-Control   Outer-Iter.   Inner-Iter.     Column Row Layer    Maximum-Head-Change  Column Row Layer    Maximum-Flux-Residual          L2-NORM 
          0                 1           2             4    7     1       0.2925898383E-01       4    7    1         0.1538886859E+01      0.3401486686E+01
          0                 2           2             4    7     1      -0.2846119834E-02       4    7    1        -0.1538899423E+00      0.3401471736E+00
          0                 3           2             4    7     1       0.1938100280E-03       4    7    1         0.1077228872E-01      0.2381008727E-01
          0                 4           1             4    7     1      -0.7711883098E-05       4    7    1        -0.4405872826E-03      0.9738237617E-03

    ------------------------------------------------
       NWT REQUIRED            4 OUTER ITERATIONS 
       AND A TOTAL OF          7 INNER ITERATIONS.
    ------------------------------------------------

 NO OUTPUT CONTROL FOR STRESS PERIOD   25   TIME STEP   13
 
 SOLVING FOR HEAD 
                                                   Max.-Head-Change                         Max.-Flux-Residual
  Residual-Control   Outer-Iter.   Inner-Iter.     Column Row Layer    Maximum-Head-Change  Column Row Layer    Maximum-Flux-Residual          L2-NORM 
          0                 1           2             4    7     1       0.2890612039E-01       4    7    1         0.1520237175E+01      0.3368380303E+01
          0                 2           2             4    7     1      -0.2811795380E-02       4    7    1        -0.1520249425E+00      0.3368366240E+00
          0                 3           2             4    7     1       0.1914726645E-03       4    7    1         0.1064173899E-01      0.2357835336E-01
          0                 4           1             4    7     1      -0.7618877266E-05       4    7    1        -0.4352477804E-03      0.9643362124E-03

    ------------------------------------------------
       NWT REQUIRED            4 OUTER ITERATIONS 
       AND A TOTAL OF          7 INNER ITERATIONS.
    ------------------------------------------------

 NO OUTPUT CONTROL FOR STRESS PERIOD   25   TIME STEP   14
 
 SOLVING FOR HEAD 
                                                   Max.-Head-Change                         Max.-Flux-Residual
  Residual-Control   Outer-Iter.   Inner-Iter.     Column Row Layer    Maximum-Head-Change  Column Row Layer    Maximum-Flux-Residual          L2-NORM 
          0                 1           2             4    7     1       0.2855939062E-01       4    7    1         0.1501912429E+01      0.3335806873E+01
          0                 2           2             4    7     1      -0.2778067629E-02       4    7    1        -0.1501924374E+00      0.3335793094E+00
          0                 3           2             4    7     1       0.1891759335E-03       4    7    1         0.1051346386E-01      0.2335033372E-01
          0                 4           1             4    7     1      -0.7527488747E-05       4    7    1        -0.4300013425E-03      0.9550186350E-03

    ------------------------------------------------
       NWT REQUIRED            4 OUTER ITERATIONS 
       AND A TOTAL OF          7 INNER ITERATIONS.
    ------------------------------------------------

 NO OUTPUT CONTROL FOR STRESS PERIOD   25   TIME STEP   15
 
 SOLVING FOR HEAD 
                                                   Max.-Head-Change                         Max.-Flux-Residual
  Residual-Control   Outer-Iter.   Inner-Iter.     Column Row Layer    Maximum-Head-Change  Column Row Layer    Maximum-Flux-Residual          L2-NORM 
          0                 1           2             4    7     1       0.2821839460E-01       4    7    1         0.1483891077E+01      0.3303750428E+01
          0                 2           2             4    7     1      -0.2744897607E-02       4    7    1        -0.1483902725E+00      0.3303737460E+00
          0                 3           2             4    7     1       0.1869171823E-03       4    7    1         0.1038731255E-01      0.2312597283E-01
          0                 4           1             4    7     1      -0.7437610356E-05       4    7    1        -0.4248417310E-03      0.9458470275E-03

    ------------------------------------------------
       NWT REQUIRED            4 OUTER ITERATIONS 
       AND A TOTAL OF          7 INNER ITERATIONS.
    ------------------------------------------------

 NO OUTPUT CONTROL FOR STRESS PERIOD   25   TIME STEP   16
 
 SOLVING FOR HEAD 
                                                   Max.-Head-Change                         Max.-Flux-Residual
  Residual-Control   Outer-Iter.   Inner-Iter.     Column Row Layer    Maximum-Head-Change  Column Row Layer    Maximum-Flux-Residual          L2-NORM 
          0                 1           2             4    7     1       0.2788328461E-01       4    7    1         0.1466181634E+01      0.3272204338E+01
          0                 2           2             4    7     1      -0.2712300115E-02       4    7    1        -0.1466192993E+00      0.3272191478E+00
          0                 3           2             4    7     1       0.1846974181E-03       4    7    1         0.1026334464E-01      0.2290514766E-01
          0                 4           1             4    7     1      -0.7349283885E-05       4    7    1        -0.4197714327E-03      0.9368194285E-03

    ------------------------------------------------
       NWT REQUIRED            4 OUTER ITERATIONS 
       AND A TOTAL OF          7 INNER ITERATIONS.
    ------------------------------------------------

 NO OUTPUT CONTROL FOR STRESS PERIOD   25   TIME STEP   17
 
 SOLVING FOR HEAD 
                                                   Max.-Head-Change                         Max.-Flux-Residual
  Residual-Control   Outer-Iter.   Inner-Iter.     Column Row Layer    Maximum-Head-Change  Column Row Layer    Maximum-Flux-Residual          L2-NORM 
          0                 1           2             4    7     1       0.2755366554E-01       4    7    1         0.1448762746E+01      0.3241145414E+01
          0                 2           2             4    7     1      -0.2680236752E-02       4    7    1        -0.1448773825E+00      0.3241132717E+00
          0                 3           2             4    7     1       0.1825140256E-03       4    7    1         0.1014141066E-01      0.2268772600E-01
          0                 4           1             4    7     1      -0.7262404569E-05       4    7    1        -0.4147843176E-03      0.9279106961E-03

    ------------------------------------------------
       NWT REQUIRED            4 OUTER ITERATIONS 
       AND A TOTAL OF          7 INNER ITERATIONS.
    ------------------------------------------------

 NO OUTPUT CONTROL FOR STRESS PERIOD   25   TIME STEP   18
 
 SOLVING FOR HEAD 
                                                   Max.-Head-Change                         Max.-Flux-Residual
  Residual-Control   Outer-Iter.   Inner-Iter.     Column Row Layer    Maximum-Head-Change  Column Row Layer    Maximum-Flux-Residual          L2-NORM 
          0                 1           2             4    7     1       0.2722955660E-01       4    7    1         0.1431635865E+01      0.3210567283E+01
          0                 2           2             4    7     1      -0.2648709385E-02       4    7    1        -0.1431646670E+00      0.3210554857E+00
          0                 3           2             4    7     1       0.1803671327E-03       4    7    1         0.1002152078E-01      0.2247369401E-01
          0                 4           1             4    7     1      -0.7176977702E-05       4    7    1        -0.4098808149E-03      0.9191736388E-03

    ------------------------------------------------
       NWT REQUIRED            4 OUTER ITERATIONS 
       AND A TOTAL OF          7 INNER ITERATIONS.
    ------------------------------------------------

 NO OUTPUT CONTROL FOR STRESS PERIOD   25   TIME STEP   19
 
 SOLVING FOR HEAD 
                                                   Max.-Head-Change                         Max.-Flux-Residual
  Residual-Control   Outer-Iter.   Inner-Iter.     Column Row Layer    Maximum-Head-Change  Column Row Layer    Maximum-Flux-Residual          L2-NORM 
          0                 1           2             4    7     1       0.2691098156E-01       4    7    1         0.1414801986E+01      0.3180475484E+01
          0                 2           2             4    7     1      -0.2617720328E-02       4    7    1        -0.1414812525E+00      0.3180463296E+00
          0                 3           2             4    7     1       0.1782568970E-03       4    7    1         0.9903681988E-02      0.2226306488E-01
          0                 4           1             4    7     1      -0.7093009501E-05       4    7    1        -0.4050612085E-03      0.9106699589E-03

    ------------------------------------------------
       NWT REQUIRED            4 OUTER ITERATIONS 
       AND A TOTAL OF          7 INNER ITERATIONS.
    ------------------------------------------------

 NO OUTPUT CONTROL FOR STRESS PERIOD   25   TIME STEP   20
 
 SOLVING FOR HEAD 
                                                   Max.-Head-Change                         Max.-Flux-Residual
  Residual-Control   Outer-Iter.   Inner-Iter.     Column Row Layer    Maximum-Head-Change  Column Row Layer    Maximum-Flux-Residual          L2-NORM 
          0                 1           2             4    7     1       0.2659768516E-01       4    7    1         0.1398247716E+01      0.3150837750E+01
          0                 2           2             4    7     1      -0.2587244748E-02       4    7    1        -0.1398257997E+00      0.3150825806E+00
          0                 3           2             4    7     1       0.1761816263E-03       4    7    1         0.9787800466E-02      0.2205561499E-01
          0                 4           1             4    7     1      -0.7010432618E-05       4    7    1        -0.4003216413E-03      0.9020636380E-03

    ------------------------------------------------
       NWT REQUIRED            4 OUTER ITERATIONS 
       AND A TOTAL OF          7 INNER ITERATIONS.
    ------------------------------------------------

 NO OUTPUT CONTROL FOR STRESS PERIOD   25   TIME STEP   21
 
 SOLVING FOR HEAD 
                                                   Max.-Head-Change                         Max.-Flux-Residual
  Residual-Control   Outer-Iter.   Inner-Iter.     Column Row Layer    Maximum-Head-Change  Column Row Layer    Maximum-Flux-Residual          L2-NORM 
          0                 1           2             4    7     1       0.2628955762E-01       4    7    1         0.1381967133E+01      0.3121660319E+01
          0                 2           2             4    7     1      -0.2557271967E-02       4    7    1        -0.1381977162E+00      0.3121648387E+00
          0                 3           2             4    7     1       0.1741405948E-03       4    7    1         0.9673834806E-02      0.2185134972E-01
          0                 4           1             4    7     1      -0.6929218270E-05       4    7    1        -0.3956604507E-03      0.8937119336E-03

    ------------------------------------------------
       NWT REQUIRED            4 OUTER ITERATIONS 
       AND A TOTAL OF          7 INNER ITERATIONS.
    ------------------------------------------------

 NO OUTPUT CONTROL FOR STRESS PERIOD   25   TIME STEP   22
 
 SOLVING FOR HEAD 
                                                   Max.-Head-Change                         Max.-Flux-Residual
  Residual-Control   Outer-Iter.   Inner-Iter.     Column Row Layer    Maximum-Head-Change  Column Row Layer    Maximum-Flux-Residual          L2-NORM 
          0                 1           2             4    7     1       0.2598648831E-01       4    7    1         0.1365954544E+01      0.3092922691E+01
          0                 2           2             4    7     1      -0.2527791225E-02       4    7    1        -0.1365964329E+00      0.3092910689E+00
          0                 3           2             4    7     1       0.1721330691E-03       4    7    1         0.9561745165E-02      0.2165018464E-01
          0                 4           1             4    7     1      -0.6849336524E-05       4    7    1        -0.3910759629E-03      0.8854787059E-03

    ------------------------------------------------
       NWT REQUIRED            4 OUTER ITERATIONS 
       AND A TOTAL OF          7 INNER ITERATIONS.
    ------------------------------------------------

 NO OUTPUT CONTROL FOR STRESS PERIOD   25   TIME STEP   23
 
 SOLVING FOR HEAD 
                                                   Max.-Head-Change                         Max.-Flux-Residual
  Residual-Control   Outer-Iter.   Inner-Iter.     Column Row Layer    Maximum-Head-Change  Column Row Layer    Maximum-Flux-Residual          L2-NORM 
          0                 1           2             4    7     1       0.2568850452E-01       4    7    1         0.1350211531E+01      0.3064625488E+01
          0                 2           2             4    7     1      -0.2498805176E-02       4    7    1        -0.1350221078E+00      0.3064613606E+00
          0                 3           2             4    7     1       0.1701592304E-03       4    7    1         0.9451542613E-02      0.2145213106E-01
          0                 4           1             4    7     1      -0.6770795669E-05       4    7    1        -0.3865686729E-03      0.8773882261E-03

    ------------------------------------------------
       NWT REQUIRED            4 OUTER ITERATIONS 
       AND A TOTAL OF          7 INNER ITERATIONS.
    ------------------------------------------------

 NO OUTPUT CONTROL FOR STRESS PERIOD   25   TIME STEP   24
 
 SOLVING FOR HEAD 
                                                   Max.-Head-Change                         Max.-Flux-Residual
  Residual-Control   Outer-Iter.   Inner-Iter.     Column Row Layer    Maximum-Head-Change  Column Row Layer    Maximum-Flux-Residual          L2-NORM 
          0                 1           2             4    7     1       0.2539549846E-01       4    7    1         0.1334732193E+01      0.3036752661E+01
          0                 2           2             4    7     1      -0.2470303333E-02       4    7    1        -0.1334741508E+00      0.3036740822E+00
          0                 3           2             4    7     1       0.1682183638E-03       4    7    1         0.9343185778E-02      0.2125701474E-01
          0                 4           1             4    7     1      -0.6693566924E-05       4    7    1        -0.3821368712E-03      0.8693991533E-03

    ------------------------------------------------
       NWT REQUIRED            4 OUTER ITERATIONS 
       AND A TOTAL OF          7 INNER ITERATIONS.
    ------------------------------------------------

 NO OUTPUT CONTROL FOR STRESS PERIOD   25   TIME STEP   25
 
 SOLVING FOR HEAD 
                                                   Max.-Head-Change                         Max.-Flux-Residual
  Residual-Control   Outer-Iter.   Inner-Iter.     Column Row Layer    Maximum-Head-Change  Column Row Layer    Maximum-Flux-Residual          L2-NORM 
          0                 1           2             4    7     1       0.2510722395E-01       4    7    1         0.1319503624E+01      0.3009296585E+01
          0                 2           2             4    7     1      -0.2442261751E-02       4    7    1        -0.1319512715E+00      0.3009284802E+00
          0                 3           2             4    7     1       0.1663088390E-03       4    7    1         0.9236584388E-02      0.2106485558E-01
          0                 4           1             4    7     1      -0.6617584895E-05       4    7    1        -0.3777768609E-03      0.8615697956E-03

    ------------------------------------------------
       NWT REQUIRED            4 OUTER ITERATIONS 
       AND A TOTAL OF          7 INNER ITERATIONS.
    ------------------------------------------------

 NO OUTPUT CONTROL FOR STRESS PERIOD   25   TIME STEP   26
 
 SOLVING FOR HEAD 
                                                   Max.-Head-Change                         Max.-Flux-Residual
  Residual-Control   Outer-Iter.   Inner-Iter.     Column Row Layer    Maximum-Head-Change  Column Row Layer    Maximum-Flux-Residual          L2-NORM 
          0                 1           2             4    7     1       0.2482371839E-01       4    7    1         0.1304527694E+01      0.2982255341E+01
          0                 2           2             4    7     1      -0.2414684066E-02       4    7    1        -0.1304536565E+00      0.2982243378E+00
          0                 3           2             4    7     1       0.1644309044E-03       4    7    1         0.9131751513E-02      0.2087552963E-01
          0                 4           1             4    7     1      -0.6542860520E-05       4    7    1        -0.3734892030E-03      0.8538112016E-03

    ------------------------------------------------
       NWT REQUIRED            4 OUTER ITERATIONS 
       AND A TOTAL OF          7 INNER ITERATIONS.
    ------------------------------------------------

 NO OUTPUT CONTROL FOR STRESS PERIOD   25   TIME STEP   27
 
 SOLVING FOR HEAD 
                                                   Max.-Head-Change                         Max.-Flux-Residual
  Residual-Control   Outer-Iter.   Inner-Iter.     Column Row Layer    Maximum-Head-Change  Column Row Layer    Maximum-Flux-Residual          L2-NORM 
          0                 1           2             4    7     1       0.2454487621E-01       4    7    1         0.1289799025E+01      0.2955612164E+01
          0                 2           2             4    7     1      -0.2387560010E-02       4    7    1        -0.1289807683E+00      0.2955599999E+00
          0                 3           2             4    7     1       0.1625838599E-03       4    7    1         0.9028649496E-02      0.2068902577E-01
          0                 4           1             4    7     1      -0.6469364787E-05       4    7    1        -0.3692723269E-03      0.8461779721E-03

    ------------------------------------------------
       NWT REQUIRED            4 OUTER ITERATIONS 
       AND A TOTAL OF          7 INNER ITERATIONS.
    ------------------------------------------------

 NO OUTPUT CONTROL FOR STRESS PERIOD   25   TIME STEP   28
 
 SOLVING FOR HEAD 
                                                   Max.-Head-Change                         Max.-Flux-Residual
  Residual-Control   Outer-Iter.   Inner-Iter.     Column Row Layer    Maximum-Head-Change  Column Row Layer    Maximum-Flux-Residual          L2-NORM 
          0                 1           2             4    7     1       0.2427059571E-01       4    7    1         0.1275312144E+01      0.2929360364E+01
          0                 2           2             4    7     1      -0.2360879689E-02       4    7    1        -0.1275320595E+00      0.2929345403E+00
          0                 3           2             4    7     1       0.1607670316E-03       4    7    1         0.8927240018E-02      0.2050525759E-01
          0                 4           1             4    7     1      -0.6397071331E-05       4    7    1        -0.3651246593E-03      0.8386500112E-03

    ------------------------------------------------
       NWT REQUIRED            4 OUTER ITERATIONS 
       AND A TOTAL OF          7 INNER ITERATIONS.
    ------------------------------------------------

 NO OUTPUT CONTROL FOR STRESS PERIOD   25   TIME STEP   29
 
 SOLVING FOR HEAD 
                                                   Max.-Head-Change                         Max.-Flux-Residual
  Residual-Control   Outer-Iter.   Inner-Iter.     Column Row Layer    Maximum-Head-Change  Column Row Layer    Maximum-Flux-Residual          L2-NORM 
          0                 1           2             4    7     1       0.2400064468E-01       4    7    1         0.1261054459E+01      0.2903620714E+01
          0                 2           2             4    7     1      -0.2334620516E-02       4    7    1        -0.1261062709E+00      0.2903607213E+00
          0                 3           2             4    7     1       0.1589788824E-03       4    7    1         0.8827434964E-02      0.2032507601E-01
          0                 4           1             4    7     1      -0.6325919366E-05       4    7    1        -0.3610426331E-03      0.8312833710E-03

    ------------------------------------------------
       NWT REQUIRED            4 OUTER ITERATIONS 
       AND A TOTAL OF          7 INNER ITERATIONS.
    ------------------------------------------------

 NO OUTPUT CONTROL FOR STRESS PERIOD   25   TIME STEP   30



 STREAM LISTING     PERIOD     25   STEP       30

 LAYER ROW COL. STREAM  RCH.  FLOW INTO     FLOW TO   FLOW OUT OF   OVRLND.     DIRECT     STREAM       STREAM     STREAM     STREAM   STREAMBED  STREAMBED
                SEG.NO.  NO.  STRM. RCH.    AQUIFER    STRM. RCH.    RUNOFF     PRECIP       ET          HEAD       DEPTH      WIDTH   CONDCTNC.   GRADIENT

   1    1    1     1     1    1.4942E+01  1.8668E-01   1.4756E+01  0.000E+00  0.000E+00  0.000E+00  1.09406E+03  1.009E+00  1.035E+01  4.656E-02  1.336E+00
   1    2    2     1     2    1.4756E+01  2.8774E-01   1.4468E+01  0.000E+00  0.000E+00  0.000E+00  1.08906E+03  1.004E+00  1.027E+01  7.186E-02  1.335E+00
   1    3    3     1     3    1.4468E+01  2.4407E-01   1.4224E+01  0.000E+00  0.000E+00  0.000E+00  1.08342E+03  9.991E-01  1.017E+01  6.103E-02  1.333E+00
   1    3    4     1     4    1.4224E+01  2.2366E-01   1.4000E+01  0.000E+00  0.000E+00  0.000E+00  1.07840E+03  9.944E-01  1.009E+01  5.599E-02  1.331E+00
   1    4    5     2     1    1.2000E+01  2.9419E-01   1.1706E+01  0.000E+00  0.000E+00  0.000E+00  1.07271E+03  7.717E-01  1.200E+01  7.800E-02  1.257E+00
   1    5    6     2     2    1.1706E+01  2.2569E-01   1.1480E+01  0.000E+00  0.000E+00  0.000E+00  1.06727E+03  7.615E-01  1.200E+01  6.000E-02  1.254E+00
   1    6    6     2     3    1.1480E+01  2.2515E-01   1.1255E+01  0.000E+00  0.000E+00  0.000E+00  1.06255E+03  7.526E-01  1.200E+01  6.000E-02  1.251E+00
   1    7    6     2     4    1.1255E+01  2.2462E-01   1.1031E+01  0.000E+00  0.000E+00  0.000E+00  1.05782E+03  7.436E-01  1.200E+01  6.000E-02  1.248E+00
   1    8    6     2     5    1.1031E+01  2.2408E-01   1.0807E+01  0.000E+00  0.000E+00  0.000E+00  1.05309E+03  7.346E-01  1.200E+01  6.000E-02  1.245E+00
   1    3    5     3     1    2.0000E+00  2.8252E-01   1.7175E+00  0.000E+00  0.000E+00  0.000E+00  1.07555E+03  1.909E+00  9.636E+00  7.227E-02  1.955E+00
   1    3    6     3     2    1.7175E+00  2.4905E-01   1.4684E+00  0.000E+00  0.000E+00  0.000E+00  1.07264E+03  1.727E+00  8.909E+00  6.682E-02  1.864E+00
   1    3    7     3     3    1.4684E+00  1.9718E-01   1.2712E+00  0.000E+00  0.000E+00  0.000E+00  1.06987E+03  1.555E+00  8.218E+00  5.547E-02  1.777E+00
   1    4    8     3     4    1.2712E+00  2.2567E-01   1.0456E+00  0.000E+00  0.000E+00  0.000E+00  1.06682E+03  1.364E+00  7.455E+00  6.709E-02  1.682E+00
   1    5    8     3     5    1.0456E+00  1.5790E-01   8.8768E-01  0.000E+00  0.000E+00  0.000E+00  1.06362E+03  1.164E+00  6.655E+00  4.991E-02  1.582E+00
   1    6    8     3     6    8.8768E-01  5.5980E-02   8.3170E-01  0.000E+00  0.000E+00  0.000E+00  1.06158E+03  1.036E+00  6.145E+00  1.844E-02  1.518E+00
   1    5   10     4     1    1.0000E+01  9.0919E-02   9.9091E+00  0.000E+00  0.000E+00  0.000E+00  1.07836E+03  6.368E-01  1.000E+01  2.500E-02  1.212E+00
   1    5    9     4     2    9.9091E+00  1.8158E-01   9.7275E+00  0.000E+00  0.000E+00  0.000E+00  1.07154E+03  6.315E-01  1.000E+01  5.000E-02  1.211E+00
   1    6    8     4     3    9.7275E+00  1.2689E-01   9.6006E+00  0.000E+00  0.000E+00  0.000E+00  1.06381E+03  6.256E-01  1.000E+01  3.500E-02  1.209E+00
   1    6    8     5     1    1.0432E+01  2.2686E-01   1.0205E+01  0.000E+00  0.000E+00  0.000E+00  1.05868E+03  6.790E-01  1.542E+01  6.166E-02  1.226E+00
   1    7    7     5     2    1.0205E+01  2.7894E-01   9.9265E+00  0.000E+00  0.000E+00  0.000E+00  1.05417E+03  6.732E-01  1.519E+01  7.594E-02  1.224E+00
   1    8    7     5     3    9.9265E+00  1.9221E-01   9.7343E+00  0.000E+00  0.000E+00  0.000E+00  1.04992E+03  6.676E-01  1.497E+01  5.241E-02  1.223E+00
   1    8    6     5     4    9.7343E+00  1.3577E-01   9.5985E+00  0.000E+00  0.000E+00  0.000E+00  1.04691E+03  6.637E-01  1.482E+01  3.706E-02  1.221E+00
   1    9    6     6     1    2.0405E+01  2.4462E-01   2.0161E+01  0.000E+00  0.000E+00  0.000E+00  1.04380E+03  1.077E+00  1.200E+01  6.000E-02  1.359E+00
   1   10    7     6     2    2.0161E+01  2.4416E-01   1.9916E+01  0.000E+00  0.000E+00  0.000E+00  1.03925E+03  1.069E+00  1.200E+01  6.000E-02  1.356E+00
   1   11    7     6     3    1.9916E+01  2.4369E-01   1.9673E+01  0.000E+00  0.000E+00  0.000E+00  1.03470E+03  1.061E+00  1.200E+01  6.000E-02  1.354E+00
   1   12    7     6     4    1.9673E+01  2.4322E-01   1.9429E+01  0.000E+00  0.000E+00  0.000E+00  1.03014E+03  1.054E+00  1.200E+01  6.000E-02  1.351E+00
   1   13    7     6     5    1.9429E+01  1.2183E-03   1.9428E+01  0.000E+00  0.000E+00  0.000E+00  1.02696E+03  1.050E+00  1.200E+01  2.400E-02  1.692E-02
   1   14    9     7     1    1.5000E+02  1.3434E+00   1.4866E+02  0.000E+00  0.000E+00  0.000E+00  1.03987E+03  2.288E+00  5.529E+01  5.593E-01  8.006E-01
   1   13    8     7     2    1.4866E+02  1.8748E+00   1.4678E+02  0.000E+00  0.000E+00  0.000E+00  1.03478E+03  2.279E+00  5.526E+01  6.148E-01  1.017E+00
   1   13    7     7     3    1.4678E+02  1.5532E+00   1.4523E+02  0.000E+00  0.000E+00  0.000E+00  1.02969E+03  2.270E+00  5.521E+01  5.584E-01  9.271E-01
   1   13    6     8     1    1.6466E+02  9.8510E-01   1.6367E+02  0.000E+00  0.000E+00  0.000E+00  1.02479E+03  2.914E+00  4.225E+01  4.305E-01  7.627E-01
   1   13    5     8     2    1.6367E+02  2.4883E-01   1.6342E+02  0.000E+00  0.000E+00  0.000E+00  1.01853E+03  2.910E+00  4.219E+01  4.299E-01  1.929E-01
   1   13    4     8     3    1.6342E+02 -2.1623E+00   1.6559E+02  0.000E+00  0.000E+00  0.000E+00  1.01229E+03  2.916E+00  4.228E+01  4.309E+00 -1.673E-01
   1   13    3     8     4    1.6559E+02 -3.5294E+00   1.6911E+02  0.000E+00  0.000E+00  0.000E+00  1.00606E+03  2.935E+00  4.256E+01  4.337E+00 -2.713E-01
   1   13    2     8     5    1.6911E+02 -2.5582E+00   1.7167E+02  0.000E+00  0.000E+00  0.000E+00  9.99830E+02  2.955E+00  4.284E+01  4.366E+00 -1.953E-01
   1   13    1     8     6    1.7167E+02 -1.9816E+00   1.7365E+02  0.000E+00  0.000E+00  0.000E+00  9.94844E+02  2.969E+00  4.306E+01  2.633E+00 -2.509E-01
   1    8    6     9     1    0.0000E+00  0.0000E+00   0.0000E+00  0.000E+00  0.000E+00  0.000E+00  1.07875E+03  0.000E+00  4.000E+00  0.000E+00  1.000E+00
   1    8    5     9     2    0.0000E+00  0.0000E+00   0.0000E+00  0.000E+00  0.000E+00  0.000E+00  1.07825E+03  0.000E+00  4.000E+00  0.000E+00  1.000E+00





UNSATURATED ZONE PACKAGE VOLUMETRIC BUDGET FOR  TIME STEP    30 STRESS PERIOD   25
  ------------------------------------------------------------------------------



     CUMULATIVE VOLUMES      L**3       RATES FOR THIS TIME STEP      L**3/T
     ------------------                 ------------------------

           IN:                                      IN:
           ---                                      ---
        INFILTRATION =   861346137.9507          INFILTRATION =           0.8475

          OUT:                                     OUT:
          ----                                     ----
              UZF ET =   860087820.6923                UZF ET =           0.7500
        UZF RECHARGE =       73224.0000          UZF RECHARGE =       0.0000E+00

            IN - OUT =     1185093.2584              IN - OUT =       9.7500E-02

          STORAGE:                                 STORAGE:
          --------                                 --------
      STORAGE CHANGE =     1185093.2452        STORAGE CHANGE =       9.7500E-02

 PERCENT DISCREPANCY IS DIFFERENCE BETWEEN IN-OUT MINUS CHANGE IN STORAGE
 DIVIDED BY THE AVERAGE OF IN AND OUT TIMES 100

 PERCENT DISCREPANCY =           0.00     PERCENT DISCREPANCY =           0.00






1
  VOLUMETRIC BUDGET FOR AGRICULTURAL FIELDS AT  END OF TIME STEP   30, STRESS PERIOD  25
  ------------------------------------------------------------------------------

     CUMULATIVE VOLUMES      L**3       RATES FOR THIS TIME STEP      L**3/T
     ------------------                 ------------------------

           IN:                                      IN:
           ---                                      ---
               AG WELLS  =   807776960.0000                 AG WELLS  =           0.0000
      DIVERSION SEGMENTS =           0.0000        DIVERSION SEGMENTS =           0.0000
       IRRIGATION PONDS  =           0.0000         IRRIGATION PONDS  =           0.0000
           GW IRRIGATION =           0.0000             GW IRRIGATION =           0.0000
           SW IRRIGATION =           0.0000             SW IRRIGATION =           0.0000
        SYSTEM LOSSES GW =           0.0000          SYSTEM LOSSES GW =           0.0000
        SYSTEM LOSSES SW =           0.0000          SYSTEM LOSSES SW =           0.0000

                TOTAL IN =   807776960.0000                  TOTAL IN =           0.0000

          OUT:                                     OUT:
          ----                                     ----
               AG WELLS  =           0.0000                 AG WELLS  =           0.0000
      DIVERSION SEGMENTS =           0.0000        DIVERSION SEGMENTS =           0.0000
       IRRIGATION PONDS  =           0.0000         IRRIGATION PONDS  =           0.0000
           GW IRRIGATION =   807776960.0000             GW IRRIGATION =           0.0000
           SW IRRIGATION =           0.0000             SW IRRIGATION =           0.0000
        SYSTEM LOSSES GW =           0.0000          SYSTEM LOSSES GW =           0.0000
        SYSTEM LOSSES SW =           0.0000          SYSTEM LOSSES SW =           0.0000

               TOTAL OUT =   807776960.0000                 TOTAL OUT =           0.0000

                IN - OUT =           0.0000                  IN - OUT =           0.0000

     PERCENT DISCREPANCY =           0.00         PERCENT DISCREPANCY =           0.00



1
  VOLUMETRIC BUDGET FOR ENTIRE MODEL AT END OF TIME STEP   30, STRESS PERIOD  25
  ------------------------------------------------------------------------------

     CUMULATIVE VOLUMES      L**3       RATES FOR THIS TIME STEP      L**3/T
     ------------------                 ------------------------

           IN:                                      IN:
           ---                                      ---
             STORAGE     =  1097385472.0000               STORAGE     =           8.1371
       CONSTANT HEAD     =           0.0000         CONSTANT HEAD     =           0.0000
     HEAD DEP BOUNDS     =    18064384.0000       HEAD DEP BOUNDS     =           0.2863
      STREAM LEAKAGE     =   762992640.0000        STREAM LEAKAGE     =          11.5195
        UZF RECHARGE     =       73223.9531          UZF RECHARGE     =           0.0000
               GW ET     =           0.0000                 GW ET     =           0.0000
     SURFACE LEAKAGE     =           0.0000       SURFACE LEAKAGE     =           0.0000
           AG WELLS      =           0.0000             AG WELLS      =           0.0000

                TOTAL IN =  1878515712.0000                  TOTAL IN =          19.9429

          OUT:                                     OUT:
          ----                                     ----
             STORAGE     =   381740512.0000               STORAGE     =           9.4226
       CONSTANT HEAD     =           0.0000         CONSTANT HEAD     =           0.0000
     HEAD DEP BOUNDS     =    18464696.0000       HEAD DEP BOUNDS     =           0.2887
      STREAM LEAKAGE     =   663222336.0000        STREAM LEAKAGE     =          10.2316
        UZF RECHARGE     =           0.0000          UZF RECHARGE     =           0.0000
               GW ET     =     7311766.5000                 GW ET     =           0.0000
     SURFACE LEAKAGE     =           0.0000       SURFACE LEAKAGE     =           0.0000
           AG WELLS      =   807776960.0000             AG WELLS      =           0.0000

               TOTAL OUT =  1878516224.0000                 TOTAL OUT =          19.9429

                IN - OUT =        -512.0000                  IN - OUT =       9.5367E-06

     PERCENT DISCREPANCY =          -0.00         PERCENT DISCREPANCY =           0.00






         TIME SUMMARY AT END OF TIME STEP   30 IN STRESS PERIOD   25
                    SECONDS     MINUTES      HOURS       DAYS        YEARS
                    -----------------------------------------------------------
   TIME STEP LENGTH  87667.      1461.1      24.352      1.0147     2.77799E-03
 STRESS PERIOD TIME 2.63000E+06  43833.      730.56      30.440     8.33397E-02
         TOTAL TIME 6.32067E+07 1.05345E+06  17557.      731.56      2.0029    
1
1
                            STRESS PERIOD NO.   26, LENGTH =   2630000.    
                            -----------------------------------------------

                              NUMBER OF TIME STEPS =    30

                               MULTIPLIER FOR DELT =     1.000

                            INITIAL TIME STEP SIZE =   87666.66    

 REUSING NON-PARAMETER GHB CELLS FROM LAST STRESS PERIOD

      2 GHB CELLS

 REUSING STREAM SEGMENT DATA FROM LAST STRESS PERIOD



            AREAL INFILTRATION RATE
 READING ON UNIT   19 WITH FORMAT: (FREE)              

            1           2           3           4           5           6           7           8           9          10
 ........................................................................................................................
   1   1.0000E-10  2.0000E-10   0.000       0.000       0.000       0.000       0.000       0.000       0.000       0.000    
   2   2.0000E-10  1.0000E-10  2.0000E-10   0.000       0.000      8.0000E-10  8.0000E-10  5.0000E-10   0.000       0.000    
   3    0.000      5.0000E-10  1.0000E-10  1.0000E-10  8.0000E-10  8.0000E-10  5.0000E-10  5.0000E-10   0.000       0.000    
   4   8.0000E-10  5.0000E-10  1.0000E-10  1.0000E-10  1.0000E-10  1.0000E-10  1.0000E-10  1.0000E-10  2.0000E-10   0.000    
   5   8.0000E-10  5.0000E-10  1.0000E-10  1.0000E-10  1.0000E-10  1.0000E-10  1.0000E-10  1.0000E-10  1.0000E-10  1.0000E-10
   6   8.0000E-10  5.0000E-10  5.0000E-10  2.0000E-10  2.0000E-10  1.0000E-10  1.0000E-10  1.0000E-10  1.0000E-10  5.0000E-10
   7   8.0000E-10  5.0000E-10  5.0000E-10  2.0000E-10  2.0000E-10  1.0000E-10  1.0000E-10  2.0000E-10  2.0000E-10   0.000    
   8    0.000      5.0000E-10  5.0000E-10  2.0000E-10  2.0000E-10  1.0000E-10  1.0000E-10  2.0000E-10  5.0000E-10   0.000    
   9    0.000      5.0000E-10  5.0000E-10  2.0000E-10  2.0000E-10  1.0000E-10  1.0000E-10  2.0000E-10  5.0000E-10   0.000    
  10    0.000      5.0000E-10  5.0000E-10  2.0000E-10  2.0000E-10  1.0000E-10  1.0000E-10  2.0000E-10  5.0000E-10  8.0000E-10
  11    0.000      1.0000E-10  1.0000E-10  1.0000E-10  1.0000E-10  1.0000E-10  1.0000E-10  2.0000E-10  5.0000E-10   0.000    
  12   1.0000E-10  1.0000E-10  1.0000E-10  1.0000E-10  1.0000E-10  1.0000E-10  1.0000E-10  1.0000E-10  2.0000E-10   0.000    
  13   1.0000E-10  1.0000E-10  2.0000E-10  2.0000E-10  2.0000E-10  2.0000E-10  2.0000E-10  1.0000E-10  1.0000E-10   0.000    
  14    0.000      2.0000E-10  5.0000E-10  5.0000E-10  5.0000E-10  5.0000E-10  5.0000E-10  2.0000E-10  1.0000E-10   0.000    
  15    0.000       0.000      8.0000E-10  8.0000E-10  8.0000E-10  8.0000E-10   0.000       0.000       0.000       0.000    

                  ET RATE =  5.000000E-10

 USING ET EXTINCTION DEPTH FROM PREVIOUS STRESS PERIOD. CURRENT PERIOD IS:      26

 USING EXTINCTION WATER CONTENT FROM PREVIOUS STRESS PERIOD. CURRENT PERIOD IS:      26

 USING AIR ENTRY PRESSURE FROM PREVIOUS STRESS PERIOD. CURRENT PERIOD IS:      26

 USING ROOT PRESSURE HEAD FROM PREVIOUS STRESS PERIOD. CURRENT PERIOD IS:      26

 USING ROOT ACTIVITY FROM PREVIOUS STRESS PERIOD. CURRENT PERIOD IS:      26

 PROCESSING AG STRESS PERIOD DATA

 READING AG STRESS PERIOD DATA

 READING IRRIGATION SEGMENT

 READING IRRIGATION WELL

 READING SUPPLEMENTAL WELL

 NO IRRPOND OR REUSING IRRPOND DATA FROM LAST STRESS PERIOD

 END PROCESSING AG STRESS PERIOD DATA OPTIONS
 
 SOLVING FOR HEAD 
                                                   Max.-Head-Change                         Max.-Flux-Residual
  Residual-Control   Outer-Iter.   Inner-Iter.     Column Row Layer    Maximum-Head-Change  Column Row Layer    Maximum-Flux-Residual          L2-NORM 
          0                 1           2             4    7     1       0.2373519637E-01       4    7    1         0.1247035886E+01      0.2879791801E+01
          0                 2           2             4    7     1      -0.2308799344E-02       4    7    1        -0.1247043939E+00      0.2879750423E+00
          0                 3           2             4    7     1       0.1572205592E-03       4    7    1         0.8729303729E-02      0.2015784336E-01
          0                 4           1             4    7     1      -0.6255953790E-05       4    7    1        -0.3570290585E-03      0.8244405949E-03

    ------------------------------------------------
       NWT REQUIRED            4 OUTER ITERATIONS 
       AND A TOTAL OF          7 INNER ITERATIONS.
    ------------------------------------------------

 NO OUTPUT CONTROL FOR STRESS PERIOD   26   TIME STEP    1
 
 SOLVING FOR HEAD 
                                                   Max.-Head-Change                         Max.-Flux-Residual
  Residual-Control   Outer-Iter.   Inner-Iter.     Column Row Layer    Maximum-Head-Change  Column Row Layer    Maximum-Flux-Residual          L2-NORM 
          0                 1           2             4    7     1       0.2347390109E-01       4    7    1         0.1233236134E+01      0.2850614984E+01
          0                 2           2             4    7     1      -0.2283382156E-02       4    7    1        -0.1233243996E+00      0.2850619080E+00
          0                 3           2             4    7     1       0.1554897458E-03       4    7    1         0.8632704274E-02      0.1995432159E-01
          0                 4           1             4    7     1      -0.6187083078E-05       4    7    1        -0.3530781332E-03      0.8161424631E-03

    ------------------------------------------------
       NWT REQUIRED            4 OUTER ITERATIONS 
       AND A TOTAL OF          7 INNER ITERATIONS.
    ------------------------------------------------

 NO OUTPUT CONTROL FOR STRESS PERIOD   26   TIME STEP    2
 
 SOLVING FOR HEAD 
                                                   Max.-Head-Change                         Max.-Flux-Residual
  Residual-Control   Outer-Iter.   Inner-Iter.     Column Row Layer    Maximum-Head-Change  Column Row Layer    Maximum-Flux-Residual          L2-NORM 
          0                 1           2             4    7     1       0.2321694277E-01       4    7    1         0.1219666346E+01      0.2825660396E+01
          0                 2           2             4    7     1      -0.2258386842E-02       4    7    1        -0.1219674022E+00      0.2825663998E+00
          0                 3           2             4    7     1       0.1537876603E-03       4    7    1         0.8537714586E-02      0.1977962377E-01
          0                 4           1             4    7     1      -0.6119355583E-05       4    7    1        -0.3491930527E-03      0.8089830182E-03

    ------------------------------------------------
       NWT REQUIRED            4 OUTER ITERATIONS 
       AND A TOTAL OF          7 INNER ITERATIONS.
    ------------------------------------------------

 NO OUTPUT CONTROL FOR STRESS PERIOD   26   TIME STEP    3
 
 SOLVING FOR HEAD 
                                                   Max.-Head-Change                         Max.-Flux-Residual
  Residual-Control   Outer-Iter.   Inner-Iter.     Column Row Layer    Maximum-Head-Change  Column Row Layer    Maximum-Flux-Residual          L2-NORM 
          0                 1           2             4    7     1       0.2296408579E-01       4    7    1         0.1206314102E+01      0.2801231141E+01
          0                 2           2             4    7     1      -0.2233790485E-02       4    7    1        -0.1206321598E+00      0.2801235385E+00
          0                 3           2             4    7     1       0.1521127424E-03       4    7    1         0.8444247751E-02      0.1960864511E-01
          0                 4           1             4    7     1      -0.6052708906E-05       4    7    1        -0.3453702589E-03      0.8020013896E-03

    ------------------------------------------------
       NWT REQUIRED            4 OUTER ITERATIONS 
       AND A TOTAL OF          7 INNER ITERATIONS.
    ------------------------------------------------

 NO OUTPUT CONTROL FOR STRESS PERIOD   26   TIME STEP    4
 
 SOLVING FOR HEAD 
                                                   Max.-Head-Change                         Max.-Flux-Residual
  Residual-Control   Outer-Iter.   Inner-Iter.     Column Row Layer    Maximum-Head-Change  Column Row Layer    Maximum-Flux-Residual          L2-NORM 
          0                 1           2             4    7     1       0.2271524567E-01       4    7    1         0.1193174506E+01      0.2777164737E+01
          0                 2           2             4    7     1      -0.2209584866E-02       4    7    1        -0.1193181826E+00      0.2777169286E+00
          0                 3           2             4    7     1       0.1504644314E-03       4    7    1         0.8352269461E-02      0.1944018253E-01
          0                 4           1             4    7     1      -0.5987121058E-05       4    7    1        -0.3416083191E-03      0.7951213926E-03

    ------------------------------------------------
       NWT REQUIRED            4 OUTER ITERATIONS 
       AND A TOTAL OF          7 INNER ITERATIONS.
    ------------------------------------------------

 NO OUTPUT CONTROL FOR STRESS PERIOD   26   TIME STEP    5
 
 SOLVING FOR HEAD 
                                                   Max.-Head-Change                         Max.-Flux-Residual
  Residual-Control   Outer-Iter.   Inner-Iter.     Column Row Layer    Maximum-Head-Change  Column Row Layer    Maximum-Flux-Residual          L2-NORM 
          0                 1           2             4    7     1       0.2247033586E-01       4    7    1         0.1180243177E+01      0.2753448646E+01
          0                 2           2             4    7     1      -0.2185761565E-02       4    7    1        -0.1180250325E+00      0.2753453466E+00
          0                 3           2             4    7     1       0.1488421559E-03       4    7    1         0.8261749091E-02      0.1927419328E-01
          0                 4           1             4    7     1      -0.5922569242E-05       4    7    1        -0.3379060424E-03      0.7883035089E-03

    ------------------------------------------------
       NWT REQUIRED            4 OUTER ITERATIONS 
       AND A TOTAL OF          7 INNER ITERATIONS.
    ------------------------------------------------

 NO OUTPUT CONTROL FOR STRESS PERIOD   26   TIME STEP    6
 
 SOLVING FOR HEAD 
                                                   Max.-Head-Change                         Max.-Flux-Residual
  Residual-Control   Outer-Iter.   Inner-Iter.     Column Row Layer    Maximum-Head-Change  Column Row Layer    Maximum-Flux-Residual          L2-NORM 
          0                 1           2             4    7     1       0.2222940725E-01       4    7    1         0.1167522947E+01      0.2730077086E+01
          0                 2           2             4    7     1      -0.2162325535E-02       4    7    1        -0.1167529928E+00      0.2730081573E+00
          0                 3           2             4    7     1       0.1472462514E-03       4    7    1         0.8172706426E-02      0.1911056189E-01
          0                 4           1             4    7     1      -0.5859066700E-05       4    7    1        -0.3342641901E-03      0.7816202349E-03

    ------------------------------------------------
       NWT REQUIRED            4 OUTER ITERATIONS 
       AND A TOTAL OF          7 INNER ITERATIONS.
    ------------------------------------------------

 NO OUTPUT CONTROL FOR STRESS PERIOD   26   TIME STEP    7
 
 SOLVING FOR HEAD 
                                                   Max.-Head-Change                         Max.-Flux-Residual
  Residual-Control   Outer-Iter.   Inner-Iter.     Column Row Layer    Maximum-Head-Change  Column Row Layer    Maximum-Flux-Residual          L2-NORM 
          0                 1           2             4    7     1       0.2199223590E-01       4    7    1         0.1155001815E+01      0.2707034764E+01
          0                 2           2             4    7     1      -0.2139255003E-02       4    7    1        -0.1155008634E+00      0.2707094213E+00
          0                 3           2             4    7     1       0.1456752361E-03       4    7    1         0.8085057482E-02      0.1894965129E-01
          0                 4           1             4    7     1      -0.5796554600E-05       4    7    1        -0.3306793546E-03      0.7750382909E-03

    ------------------------------------------------
       NWT REQUIRED            4 OUTER ITERATIONS 
       AND A TOTAL OF          7 INNER ITERATIONS.
    ------------------------------------------------

 NO OUTPUT CONTROL FOR STRESS PERIOD   26   TIME STEP    8
 
 SOLVING FOR HEAD 
                                                   Max.-Head-Change                         Max.-Flux-Residual
  Residual-Control   Outer-Iter.   Inner-Iter.     Column Row Layer    Maximum-Head-Change  Column Row Layer    Maximum-Flux-Residual          L2-NORM 
          0                 1           2             4    7     1       0.2175873727E-01       4    7    1         0.1142675489E+01      0.2684314614E+01
          0                 2           2             4    7     1      -0.2116541705E-02       4    7    1        -0.1142682151E+00      0.2684319190E+00
          0                 3           2             4    7     1       0.1441285466E-03       4    7    1         0.7998772197E-02      0.1879022162E-01
          0                 4           1             4    7     1      -0.5735010263E-05       4    7    1        -0.3271502633E-03      0.7685193834E-03

    ------------------------------------------------
       NWT REQUIRED            4 OUTER ITERATIONS 
       AND A TOTAL OF          7 INNER ITERATIONS.
    ------------------------------------------------

 NO OUTPUT CONTROL FOR STRESS PERIOD   26   TIME STEP    9
 
 SOLVING FOR HEAD 
                                                   Max.-Head-Change                         Max.-Flux-Residual
  Residual-Control   Outer-Iter.   Inner-Iter.     Column Row Layer    Maximum-Head-Change  Column Row Layer    Maximum-Flux-Residual          L2-NORM 
          0                 1           2             4    7     1       0.2152897176E-01       4    7    1         0.1130546910E+01      0.2661877711E+01
          0                 2           2             4    7     1      -0.2094191560E-02       4    7    1        -0.1130553418E+00      0.2661881172E+00
          0                 3           2             4    7     1       0.1426065869E-03       4    7    1         0.7913871190E-02      0.1863315795E-01
          0                 4           1             4    7     1      -0.5674449922E-05       4    7    1        -0.3236778023E-03      0.7621399532E-03

    ------------------------------------------------
       NWT REQUIRED            4 OUTER ITERATIONS 
       AND A TOTAL OF          7 INNER ITERATIONS.
    ------------------------------------------------

 NO OUTPUT CONTROL FOR STRESS PERIOD   26   TIME STEP   10
 
 SOLVING FOR HEAD 
                                                   Max.-Head-Change                         Max.-Flux-Residual
  Residual-Control   Outer-Iter.   Inner-Iter.     Column Row Layer    Maximum-Head-Change  Column Row Layer    Maximum-Flux-Residual          L2-NORM 
          0                 1           2             4    7     1       0.2130285464E-01       4    7    1         0.1118611886E+01      0.2639755846E+01
          0                 2           2             4    7     1      -0.2072196308E-02       4    7    1        -0.1118618245E+00      0.2639758859E+00
          0                 3           2             4    7     1       0.1411087942E-03       4    7    1         0.7830325077E-02      0.1847829986E-01
          0                 4           1             4    7     1      -0.5614851472E-05       4    7    1        -0.3202607782E-03      0.7557642368E-03

    ------------------------------------------------
       NWT REQUIRED            4 OUTER ITERATIONS 
       AND A TOTAL OF          7 INNER ITERATIONS.
    ------------------------------------------------

 NO OUTPUT CONTROL FOR STRESS PERIOD   26   TIME STEP   11
 
 SOLVING FOR HEAD 
                                                   Max.-Head-Change                         Max.-Flux-Residual
  Residual-Control   Outer-Iter.   Inner-Iter.     Column Row Layer    Maximum-Head-Change  Column Row Layer    Maximum-Flux-Residual          L2-NORM 
          0                 1           2             4    7     1       0.2108017079E-01       4    7    1         0.1106858704E+01      0.2617937478E+01
          0                 2           2             4    7     1      -0.2050535025E-02       4    7    1        -0.1106864916E+00      0.2617939925E+00
          0                 3           2             4    7     1       0.1396337433E-03       4    7    1         0.7748051897E-02      0.1832555124E-01
          0                 4           1             4    7     1      -0.5556157579E-05       4    7    1        -0.3168957862E-03      0.7495080579E-03

    ------------------------------------------------
       NWT REQUIRED            4 OUTER ITERATIONS 
       AND A TOTAL OF          7 INNER ITERATIONS.
    ------------------------------------------------

 NO OUTPUT CONTROL FOR STRESS PERIOD   26   TIME STEP   12
 
 SOLVING FOR HEAD 
                                                   Max.-Head-Change                         Max.-Flux-Residual
  Residual-Control   Outer-Iter.   Inner-Iter.     Column Row Layer    Maximum-Head-Change  Column Row Layer    Maximum-Flux-Residual          L2-NORM 
          0                 1           2             4    7     1       0.2086097999E-01       4    7    1         0.1095290851E+01      0.2596421047E+01
          0                 2           2             4    7     1      -0.2029213528E-02       4    7    1        -0.1095296922E+00      0.2596422862E+00
          0                 3           2             4    7     1       0.1381818304E-03       4    7    1         0.7667076030E-02      0.1817493391E-01
          0                 4           1             4    7     1      -0.5498384707E-05       4    7    1        -0.3135838745E-03      0.7433417378E-03

    ------------------------------------------------
       NWT REQUIRED            4 OUTER ITERATIONS 
       AND A TOTAL OF          7 INNER ITERATIONS.
    ------------------------------------------------

 NO OUTPUT CONTROL FOR STRESS PERIOD   26   TIME STEP   13
 
 SOLVING FOR HEAD 
                                                   Max.-Head-Change                         Max.-Flux-Residual
  Residual-Control   Outer-Iter.   Inner-Iter.     Column Row Layer    Maximum-Head-Change  Column Row Layer    Maximum-Flux-Residual          L2-NORM 
          0                 1           2             4    7     1       0.2064520931E-01       4    7    1         0.1083904108E+01      0.2575207292E+01
          0                 2           2             4    7     1      -0.2008224720E-02       4    7    1        -0.1083910042E+00      0.2575208529E+00
          0                 3           2             4    7     1       0.1367525722E-03       4    7    1         0.7587367943E-02      0.1802642079E-01
          0                 4           1             4    7     1      -0.5441513284E-05       4    7    1        -0.3103238148E-03      0.7372717249E-03

    ------------------------------------------------
       NWT REQUIRED            4 OUTER ITERATIONS 
       AND A TOTAL OF          7 INNER ITERATIONS.
    ------------------------------------------------

 NO OUTPUT CONTROL FOR STRESS PERIOD   26   TIME STEP   14
 
 SOLVING FOR HEAD 
                                                   Max.-Head-Change                         Max.-Flux-Residual
  Residual-Control   Outer-Iter.   Inner-Iter.     Column Row Layer    Maximum-Head-Change  Column Row Layer    Maximum-Flux-Residual          L2-NORM 
          0                 1           2             4    7     1       0.2043278465E-01       4    7    1         0.1072694693E+01      0.2554282263E+01
          0                 2           2             4    7     1      -0.1987561394E-02       4    7    1        -0.1072700492E+00      0.2554282698E+00
          0                 3           2             4    7     1       0.1353454783E-03       4    7    1         0.7508901193E-02      0.1787995095E-01
          0                 4           1             4    7     1      -0.5385523739E-05       4    7    1        -0.3071145215E-03      0.7313196641E-03

    ------------------------------------------------
       NWT REQUIRED            4 OUTER ITERATIONS 
       AND A TOTAL OF          7 INNER ITERATIONS.
    ------------------------------------------------

 NO OUTPUT CONTROL FOR STRESS PERIOD   26   TIME STEP   15
 
 SOLVING FOR HEAD 
                                                   Max.-Head-Change                         Max.-Flux-Residual
  Residual-Control   Outer-Iter.   Inner-Iter.     Column Row Layer    Maximum-Head-Change  Column Row Layer    Maximum-Flux-Residual          L2-NORM 
          0                 1           2             4    7     1       0.2022349526E-01       4    7    1         0.1061651439E+01      0.2533640980E+01
          0                 2           2             4    7     1      -0.1967203050E-02       4    7    1        -0.1061657107E+00      0.2533640903E+00
          0                 3           2             4    7     1       0.1339591523E-03       4    7    1         0.7431597597E-02      0.1773543269E-01
          0                 4           1             4    7     1      -0.5330360349E-05       4    7    1        -0.3039527862E-03      0.7253656812E-03

    ------------------------------------------------
       NWT REQUIRED            4 OUTER ITERATIONS 
       AND A TOTAL OF          7 INNER ITERATIONS.
    ------------------------------------------------

 NO OUTPUT CONTROL FOR STRESS PERIOD   26   TIME STEP   16
 
 SOLVING FOR HEAD 
                                                   Max.-Head-Change                         Max.-Flux-Residual
  Residual-Control   Outer-Iter.   Inner-Iter.     Column Row Layer    Maximum-Head-Change  Column Row Layer    Maximum-Flux-Residual          L2-NORM 
          0                 1           2             4    7     1       0.2001741226E-01       4    7    1         0.1050778067E+01      0.2513279234E+01
          0                 2           2             4    7     1      -0.1947156605E-02       4    7    1        -0.1050783608E+00      0.2513278714E+00
          0                 3           2             4    7     1       0.1325940659E-03       4    7    1         0.7355483195E-02      0.1759292693E-01
          0                 4           1             4    7     1      -0.5276042457E-05       4    7    1        -0.3008397168E-03      0.7195463259E-03

    ------------------------------------------------
       NWT REQUIRED            4 OUTER ITERATIONS 
       AND A TOTAL OF          7 INNER ITERATIONS.
    ------------------------------------------------

 NO OUTPUT CONTROL FOR STRESS PERIOD   26   TIME STEP   17
 
 SOLVING FOR HEAD 
                                                   Max.-Head-Change                         Max.-Flux-Residual
  Residual-Control   Outer-Iter.   Inner-Iter.     Column Row Layer    Maximum-Head-Change  Column Row Layer    Maximum-Flux-Residual          L2-NORM 
          0                 1           2             4    7     1       0.1981446987E-01       4    7    1         0.1040070941E+01      0.2493194622E+01
          0                 2           2             4    7     1      -0.1927415660E-02       4    7    1        -0.1040076358E+00      0.2493193374E+00
          0                 3           2             4    7     1       0.1312497822E-03       4    7    1         0.7280532514E-02      0.1745230425E-01
          0                 4           1             4    7     1      -0.5222552331E-05       4    7    1        -0.2977742281E-03      0.7138010585E-03

    ------------------------------------------------
       NWT REQUIRED            4 OUTER ITERATIONS 
       AND A TOTAL OF          7 INNER ITERATIONS.
    ------------------------------------------------

 NO OUTPUT CONTROL FOR STRESS PERIOD   26   TIME STEP   18
 
 SOLVING FOR HEAD 
                                                   Max.-Head-Change                         Max.-Flux-Residual
  Residual-Control   Outer-Iter.   Inner-Iter.     Column Row Layer    Maximum-Head-Change  Column Row Layer    Maximum-Flux-Residual          L2-NORM 
          0                 1           2             4    7     1       0.1961459831E-01       4    7    1         0.1029526650E+01      0.2473375195E+01
          0                 2           2             4    7     1      -0.1907973429E-02       4    7    1        -0.1029531946E+00      0.2473373359E+00
          0                 3           2             4    7     1       0.1299258400E-03       4    7    1         0.7206721727E-02      0.1731355704E-01
          0                 4           1             4    7     1      -0.5169870863E-05       4    7    1        -0.2947553344E-03      0.7081182248E-03

    ------------------------------------------------
       NWT REQUIRED            4 OUTER ITERATIONS 
       AND A TOTAL OF          7 INNER ITERATIONS.
    ------------------------------------------------

 NO OUTPUT CONTROL FOR STRESS PERIOD   26   TIME STEP   19
 
 SOLVING FOR HEAD 
                                                   Max.-Head-Change                         Max.-Flux-Residual
  Residual-Control   Outer-Iter.   Inner-Iter.     Column Row Layer    Maximum-Head-Change  Column Row Layer    Maximum-Flux-Residual          L2-NORM 
          0                 1           2             4    7     1       0.1941773136E-01       4    7    1         0.1019141576E+01      0.2453824643E+01
          0                 2           2             4    7     1      -0.1888823468E-02       4    7    1        -0.1019146755E+00      0.2453822206E+00
          0                 3           2             4    7     1       0.1286218003E-03       4    7    1         0.7134025457E-02      0.1717669570E-01
          0                 4           1             4    7     1      -0.5117982162E-05       4    7    1        -0.2917820643E-03      0.7025288681E-03

    ------------------------------------------------
       NWT REQUIRED            4 OUTER ITERATIONS 
       AND A TOTAL OF          7 INNER ITERATIONS.
    ------------------------------------------------

 NO OUTPUT CONTROL FOR STRESS PERIOD   26   TIME STEP   20
 
 SOLVING FOR HEAD 
                                                   Max.-Head-Change                         Max.-Flux-Residual
  Residual-Control   Outer-Iter.   Inner-Iter.     Column Row Layer    Maximum-Head-Change  Column Row Layer    Maximum-Flux-Residual          L2-NORM 
          0                 1           2             4    7     1       0.1922394253E-01       4    7    1         0.1008919612E+01      0.2434533656E+01
          0                 2           2             4    7     1      -0.1869972929E-02       4    7    1        -0.1008924676E+00      0.2434530495E+00
          0                 3           2             4    7     1       0.1273381503E-03       4    7    1         0.7062470994E-02      0.1704164649E-01
          0                 4           1             4    7     1      -0.5066904421E-05       4    7    1        -0.2888554752E-03      0.6970177871E-03

    ------------------------------------------------
       NWT REQUIRED            4 OUTER ITERATIONS 
       AND A TOTAL OF          7 INNER ITERATIONS.
    ------------------------------------------------

 NO OUTPUT CONTROL FOR STRESS PERIOD   26   TIME STEP   21
 
 SOLVING FOR HEAD 
                                                   Max.-Head-Change                         Max.-Flux-Residual
  Residual-Control   Outer-Iter.   Inner-Iter.     Column Row Layer    Maximum-Head-Change  Column Row Layer    Maximum-Flux-Residual          L2-NORM 
          0                 1           2             4    7     1       0.1903289241E-01       4    7    1         0.9988425927E+00      0.2415501041E+01
          0                 2           2             4    7     1      -0.1851401174E-02       4    7    1        -0.9988475455E-01      0.2415708982E+00
          0                 3           2             4    7     1       0.1260734843E-03       4    7    1         0.6991931145E-02      0.1690989231E-01
          0                 4           1             4    7     1      -0.5016582492E-05       4    7    1        -0.2859704091E-03      0.6916061853E-03

    ------------------------------------------------
       NWT REQUIRED            4 OUTER ITERATIONS 
       AND A TOTAL OF          7 INNER ITERATIONS.
    ------------------------------------------------

 NO OUTPUT CONTROL FOR STRESS PERIOD   26   TIME STEP   22
 
 SOLVING FOR HEAD 
                                                   Max.-Head-Change                         Max.-Flux-Residual
  Residual-Control   Outer-Iter.   Inner-Iter.     Column Row Layer    Maximum-Head-Change  Column Row Layer    Maximum-Flux-Residual          L2-NORM 
          0                 1           2             4    7     1       0.1884470351E-01       4    7    1         0.9889215613E+00      0.2396700455E+01
          0                 2           2             4    7     1      -0.1833083000E-02       4    7    1        -0.9889264074E-01      0.2396696547E+00
          0                 3           2             4    7     1       0.1248260857E-03       4    7    1         0.6922483251E-02      0.1677679937E-01
          0                 4           1             4    7     1      -0.4966947184E-05       4    7    1        -0.2831299705E-03      0.6861688717E-03

    ------------------------------------------------
       NWT REQUIRED            4 OUTER ITERATIONS 
       AND A TOTAL OF          7 INNER ITERATIONS.
    ------------------------------------------------

 NO OUTPUT CONTROL FOR STRESS PERIOD   26   TIME STEP   23
 
 SOLVING FOR HEAD 
                                                   Max.-Head-Change                         Max.-Flux-Residual
  Residual-Control   Outer-Iter.   Inner-Iter.     Column Row Layer    Maximum-Head-Change  Column Row Layer    Maximum-Flux-Residual          L2-NORM 
          0                 1           2             4    7     1       0.1865908925E-01       4    7    1         0.9791355472E+00      0.2378086608E+01
          0                 2           2             4    7     1      -0.1815027639E-02       4    7    1        -0.9791402888E-01      0.2378082958E+00
          0                 3           2             4    7     1       0.1235965845E-03       4    7    1         0.6853980497E-02      0.1664652002E-01
          0                 4           1             4    7     1      -0.4918024401E-05       4    7    1        -0.2803282196E-03      0.6808395317E-03

    ------------------------------------------------
       NWT REQUIRED            4 OUTER ITERATIONS 
       AND A TOTAL OF          7 INNER ITERATIONS.
    ------------------------------------------------

 NO OUTPUT CONTROL FOR STRESS PERIOD   26   TIME STEP   24
 
 SOLVING FOR HEAD 
                                                   Max.-Head-Change                         Max.-Flux-Residual
  Residual-Control   Outer-Iter.   Inner-Iter.     Column Row Layer    Maximum-Head-Change  Column Row Layer    Maximum-Flux-Residual          L2-NORM 
          0                 1           2             4    7     1       0.1847626357E-01       4    7    1         0.9694970167E+00      0.2359721501E+01
          0                 2           2             4    7     1      -0.1797243534E-02       4    7    1        -0.9695016564E-01      0.2359716623E+00
          0                 3           2             4    7     1       0.1223855546E-03       4    7    1         0.6786510142E-02      0.1651794349E-01
          0                 4           1             4    7     1      -0.4869836248E-05       4    7    1        -0.2775686830E-03      0.6755818383E-03

    ------------------------------------------------
       NWT REQUIRED            4 OUTER ITERATIONS 
       AND A TOTAL OF          7 INNER ITERATIONS.
    ------------------------------------------------

 NO OUTPUT CONTROL FOR STRESS PERIOD   26   TIME STEP   25
 
 SOLVING FOR HEAD 
                                                   Max.-Head-Change                         Max.-Flux-Residual
  Residual-Control   Outer-Iter.   Inner-Iter.     Column Row Layer    Maximum-Head-Change  Column Row Layer    Maximum-Flux-Residual          L2-NORM 
          0                 1           2             4    7     1       0.1829603500E-01       4    7    1         0.9599957428E+00      0.2341592390E+01
          0                 2           2             4    7     1      -0.1779712060E-02       4    7    1        -0.9600002829E-01      0.2341587058E+00
          0                 3           1             4    7     1       0.1211917305E-03       4    7    1         0.6720000588E-02      0.1639101840E-01
          0                 4           1             4    7     1      -0.4822335981E-05       4    7    1        -0.2748484183E-03      0.6704115291E-03

    ------------------------------------------------
       NWT REQUIRED            4 OUTER ITERATIONS 
       AND A TOTAL OF          6 INNER ITERATIONS.
    ------------------------------------------------

 NO OUTPUT CONTROL FOR STRESS PERIOD   26   TIME STEP   26
 
 SOLVING FOR HEAD 
                                                   Max.-Head-Change                         Max.-Flux-Residual
  Residual-Control   Outer-Iter.   Inner-Iter.     Column Row Layer    Maximum-Head-Change  Column Row Layer    Maximum-Flux-Residual          L2-NORM 
          0                 1           2             4    7     1       0.1811849271E-01       4    7    1         0.9506364513E+00      0.2323705800E+01
          0                 2           2             4    7     1      -0.1762441892E-02       4    7    1        -0.9506408943E-01      0.2323700219E+00
          0                 3           1             4    7     1       0.1200156977E-03       4    7    1         0.6654484929E-02      0.1626582115E-01
          0                 4           1             4    7     1      -0.4775540526E-05       4    7    1        -0.2721688393E-03      0.6651540554E-03

    ------------------------------------------------
       NWT REQUIRED            4 OUTER ITERATIONS 
       AND A TOTAL OF          6 INNER ITERATIONS.
    ------------------------------------------------

 NO OUTPUT CONTROL FOR STRESS PERIOD   26   TIME STEP   27
 
 SOLVING FOR HEAD 
                                                   Max.-Head-Change                         Max.-Flux-Residual
  Residual-Control   Outer-Iter.   Inner-Iter.     Column Row Layer    Maximum-Head-Change  Column Row Layer    Maximum-Flux-Residual          L2-NORM 
          0                 1           2             4    7     1       0.1794344736E-01       4    7    1         0.9414091128E+00      0.2306050587E+01
          0                 2           2             4    7     1      -0.1745414611E-02       4    7    1        -0.9414134610E-01      0.2306044285E+00
          0                 3           1             4    7     1       0.1188562042E-03       4    7    1         0.6589892951E-02      0.1614221678E-01
          0                 4           1             4    7     1      -0.4729403025E-05       4    7    1        -0.2695270252E-03      0.6602256830E-03

    ------------------------------------------------
       NWT REQUIRED            4 OUTER ITERATIONS 
       AND A TOTAL OF          6 INNER ITERATIONS.
    ------------------------------------------------

 NO OUTPUT CONTROL FOR STRESS PERIOD   26   TIME STEP   28
 
 SOLVING FOR HEAD 
                                                   Max.-Head-Change                         Max.-Flux-Residual
  Residual-Control   Outer-Iter.   Inner-Iter.     Column Row Layer    Maximum-Head-Change  Column Row Layer    Maximum-Flux-Residual          L2-NORM 
          0                 1           2             4    7     1       0.1777084979E-01       4    7    1         0.9323112360E+00      0.2288615699E+01
          0                 2           2             4    7     1      -0.1728625437E-02       4    7    1        -0.9323154916E-01      0.2288609196E+00
          0                 3           1             4    7     1       0.1177129250E-03       4    7    1         0.6526207230E-02      0.1602018653E-01
          0                 4           1             4    7     1      -0.4683910814E-05       4    7    1        -0.2669222674E-03      0.6552194112E-03

    ------------------------------------------------
       NWT REQUIRED            4 OUTER ITERATIONS 
       AND A TOTAL OF          6 INNER ITERATIONS.
    ------------------------------------------------

 NO OUTPUT CONTROL FOR STRESS PERIOD   26   TIME STEP   29
 
 SOLVING FOR HEAD 
                                                   Max.-Head-Change                         Max.-Flux-Residual
  Residual-Control   Outer-Iter.   Inner-Iter.     Column Row Layer    Maximum-Head-Change  Column Row Layer    Maximum-Flux-Residual          L2-NORM 
          0                 1           2             4    7     1       0.1760079464E-01       4    7    1         0.9233476000E+00      0.2271414834E+01
          0                 2           2             4    7     1      -0.1712083573E-02       4    7    1        -0.9233517655E-01      0.2271408032E+00
          0                 3           1             4    7     1       0.1165864866E-03       4    7    1         0.6463461203E-02      0.1589977129E-01
          0                 4           1             4    7     1      -0.4639088761E-05       4    7    1        -0.2643559446E-03      0.6502993623E-03

    ------------------------------------------------
       NWT REQUIRED            4 OUTER ITERATIONS 
       AND A TOTAL OF          6 INNER ITERATIONS.
    ------------------------------------------------

 NO OUTPUT CONTROL FOR STRESS PERIOD   26   TIME STEP   30



 STREAM LISTING     PERIOD     26   STEP       30

 LAYER ROW COL. STREAM  RCH.  FLOW INTO     FLOW TO   FLOW OUT OF   OVRLND.     DIRECT     STREAM       STREAM     STREAM     STREAM   STREAMBED  STREAMBED
                SEG.NO.  NO.  STRM. RCH.    AQUIFER    STRM. RCH.    RUNOFF     PRECIP       ET          HEAD       DEPTH      WIDTH   CONDCTNC.   GRADIENT

   1    1    1     1     1    1.6500E+01  1.9759E-01   1.6303E+01  0.000E+00  0.000E+00  0.000E+00  1.09409E+03  1.039E+00  1.087E+01  4.893E-02  1.346E+00
   1    2    2     1     2    1.6303E+01  3.0466E-01   1.5998E+01  0.000E+00  0.000E+00  0.000E+00  1.08909E+03  1.034E+00  1.079E+01  7.552E-02  1.345E+00
   1    3    3     1     3    1.5998E+01  2.5853E-01   1.5739E+01  0.000E+00  0.000E+00  0.000E+00  1.08345E+03  1.029E+00  1.070E+01  6.417E-02  1.343E+00
   1    3    4     1     4    1.5739E+01  2.3700E-01   1.5502E+01  0.000E+00  0.000E+00  0.000E+00  1.07843E+03  1.024E+00  1.061E+01  5.890E-02  1.341E+00
   1    4    5     2     1    1.3502E+01  2.9865E-01   1.3204E+01  0.000E+00  0.000E+00  0.000E+00  1.07276E+03  8.289E-01  1.200E+01  7.800E-02  1.276E+00
   1    5    6     2     2    1.3204E+01  2.2914E-01   1.2975E+01  0.000E+00  0.000E+00  0.000E+00  1.06733E+03  8.190E-01  1.200E+01  6.000E-02  1.273E+00
   1    6    6     2     3    1.2975E+01  2.2862E-01   1.2746E+01  0.000E+00  0.000E+00  0.000E+00  1.06260E+03  8.104E-01  1.200E+01  6.000E-02  1.270E+00
   1    7    6     2     4    1.2746E+01  2.2810E-01   1.2518E+01  0.000E+00  0.000E+00  0.000E+00  1.05788E+03  8.017E-01  1.200E+01  6.000E-02  1.267E+00
   1    8    6     2     5    1.2518E+01  2.2758E-01   1.2290E+01  0.000E+00  0.000E+00  0.000E+00  1.05315E+03  7.930E-01  1.200E+01  6.000E-02  1.264E+00
   1    3    5     3     1    2.0000E+00  2.8252E-01   1.7175E+00  0.000E+00  0.000E+00  0.000E+00  1.07555E+03  1.909E+00  9.636E+00  7.227E-02  1.955E+00
   1    3    6     3     2    1.7175E+00  2.4905E-01   1.4684E+00  0.000E+00  0.000E+00  0.000E+00  1.07264E+03  1.727E+00  8.909E+00  6.682E-02  1.864E+00
   1    3    7     3     3    1.4684E+00  1.9718E-01   1.2712E+00  0.000E+00  0.000E+00  0.000E+00  1.06987E+03  1.555E+00  8.218E+00  5.547E-02  1.777E+00
   1    4    8     3     4    1.2712E+00  2.2567E-01   1.0456E+00  0.000E+00  0.000E+00  0.000E+00  1.06682E+03  1.364E+00  7.455E+00  6.709E-02  1.682E+00
   1    5    8     3     5    1.0456E+00  1.5790E-01   8.8768E-01  0.000E+00  0.000E+00  0.000E+00  1.06362E+03  1.164E+00  6.655E+00  4.991E-02  1.582E+00
   1    6    8     3     6    8.8768E-01  5.5980E-02   8.3170E-01  0.000E+00  0.000E+00  0.000E+00  1.06158E+03  1.036E+00  6.145E+00  1.844E-02  1.518E+00
   1    5   10     4     1    1.0000E+01  9.0919E-02   9.9091E+00  0.000E+00  0.000E+00  0.000E+00  1.07836E+03  6.368E-01  1.000E+01  2.500E-02  1.212E+00
   1    5    9     4     2    9.9091E+00  1.8158E-01   9.7275E+00  0.000E+00  0.000E+00  0.000E+00  1.07154E+03  6.315E-01  1.000E+01  5.000E-02  1.211E+00
   1    6    8     4     3    9.7275E+00  1.2689E-01   9.6006E+00  0.000E+00  0.000E+00  0.000E+00  1.06381E+03  6.256E-01  1.000E+01  3.500E-02  1.209E+00
   1    6    8     5     1    1.0432E+01  2.2686E-01   1.0205E+01  0.000E+00  0.000E+00  0.000E+00  1.05868E+03  6.790E-01  1.542E+01  6.166E-02  1.226E+00
   1    7    7     5     2    1.0205E+01  2.7894E-01   9.9265E+00  0.000E+00  0.000E+00  0.000E+00  1.05417E+03  6.732E-01  1.519E+01  7.594E-02  1.224E+00
   1    8    7     5     3    9.9265E+00  1.9221E-01   9.7343E+00  0.000E+00  0.000E+00  0.000E+00  1.04992E+03  6.676E-01  1.497E+01  5.241E-02  1.223E+00
   1    8    6     5     4    9.7343E+00  1.3577E-01   9.5985E+00  0.000E+00  0.000E+00  0.000E+00  1.04691E+03  6.637E-01  1.482E+01  3.706E-02  1.221E+00
   1    9    6     6     1    2.1889E+01  2.4742E-01   2.1641E+01  0.000E+00  0.000E+00  0.000E+00  1.04385E+03  1.124E+00  1.200E+01  6.000E-02  1.375E+00
   1   10    7     6     2    2.1641E+01  2.4696E-01   2.1395E+01  0.000E+00  0.000E+00  0.000E+00  1.03930E+03  1.116E+00  1.200E+01  6.000E-02  1.372E+00
   1   11    7     6     3    2.1395E+01  2.4650E-01   2.1148E+01  0.000E+00  0.000E+00  0.000E+00  1.03474E+03  1.108E+00  1.200E+01  6.000E-02  1.369E+00
   1   12    7     6     4    2.1148E+01  2.4603E-01   2.0902E+01  0.000E+00  0.000E+00  0.000E+00  1.03019E+03  1.101E+00  1.200E+01  6.000E-02  1.367E+00
   1   13    7     6     5    2.0902E+01  3.0177E-03   2.0899E+01  0.000E+00  0.000E+00  0.000E+00  1.02701E+03  1.097E+00  1.200E+01  2.400E-02  4.191E-02
   1   14    9     7     1    1.5000E+02  1.3447E+00   1.4866E+02  0.000E+00  0.000E+00  0.000E+00  1.03987E+03  2.288E+00  5.529E+01  5.593E-01  8.014E-01
   1   13    8     7     2    1.4866E+02  1.8821E+00   1.4677E+02  0.000E+00  0.000E+00  0.000E+00  1.03478E+03  2.279E+00  5.526E+01  6.148E-01  1.020E+00
   1   13    7     7     3    1.4677E+02  1.5688E+00   1.4520E+02  0.000E+00  0.000E+00  0.000E+00  1.02969E+03  2.270E+00  5.521E+01  5.584E-01  9.364E-01
   1   13    6     8     1    1.6610E+02  1.0077E+00   1.6510E+02  0.000E+00  0.000E+00  0.000E+00  1.02480E+03  2.923E+00  4.239E+01  4.319E-01  7.776E-01
   1   13    5     8     2    1.6510E+02  2.6761E-01   1.6483E+02  0.000E+00  0.000E+00  0.000E+00  1.01854E+03  2.919E+00  4.233E+01  4.313E-01  2.068E-01
   1   13    4     8     3    1.6483E+02 -2.1031E+00   1.6693E+02  0.000E+00  0.000E+00  0.000E+00  1.01230E+03  2.925E+00  4.241E+01  4.322E+00 -1.622E-01
   1   13    3     8     4    1.6693E+02 -3.4964E+00   1.7043E+02  0.000E+00  0.000E+00  0.000E+00  1.00607E+03  2.944E+00  4.268E+01  4.349E+00 -2.680E-01
   1   13    2     8     5    1.7043E+02 -2.5441E+00   1.7297E+02  0.000E+00  0.000E+00  0.000E+00  9.99838E+02  2.963E+00  4.297E+01  4.378E+00 -1.937E-01
   1   13    1     8     6    1.7297E+02 -1.9723E+00   1.7494E+02  0.000E+00  0.000E+00  0.000E+00  9.94853E+02  2.978E+00  4.318E+01  2.640E+00 -2.490E-01
   1    8    6     9     1    0.0000E+00  0.0000E+00   0.0000E+00  0.000E+00  0.000E+00  0.000E+00  1.07875E+03  0.000E+00  4.000E+00  0.000E+00  1.000E+00
   1    8    5     9     2    0.0000E+00  0.0000E+00   0.0000E+00  0.000E+00  0.000E+00  0.000E+00  1.07825E+03  0.000E+00  4.000E+00  0.000E+00  1.000E+00





UNSATURATED ZONE PACKAGE VOLUMETRIC BUDGET FOR  TIME STEP    30 STRESS PERIOD   26
  ------------------------------------------------------------------------------



     CUMULATIVE VOLUMES      L**3       RATES FOR THIS TIME STEP      L**3/T
     ------------------                 ------------------------

           IN:                                      IN:
           ---                                      ---
        INFILTRATION =   863575062.8234          INFILTRATION =           0.8475

          OUT:                                     OUT:
          ----                                     ----
              UZF ET =   862060320.5463                UZF ET =           0.7500
        UZF RECHARGE =       73224.0000          UZF RECHARGE =       0.0000E+00

            IN - OUT =     1441518.2772              IN - OUT =       9.7500E-02

          STORAGE:                                 STORAGE:
          --------                                 --------
      STORAGE CHANGE =     1441518.2830        STORAGE CHANGE =       9.7500E-02

 PERCENT DISCREPANCY IS DIFFERENCE BETWEEN IN-OUT MINUS CHANGE IN STORAGE
 DIVIDED BY THE AVERAGE OF IN AND OUT TIMES 100

 PERCENT DISCREPANCY =           0.00     PERCENT DISCREPANCY =           0.00






1
  VOLUMETRIC BUDGET FOR AGRICULTURAL FIELDS AT  END OF TIME STEP   30, STRESS PERIOD  26
  ------------------------------------------------------------------------------

     CUMULATIVE VOLUMES      L**3       RATES FOR THIS TIME STEP      L**3/T
     ------------------                 ------------------------

           IN:                                      IN:
           ---                                      ---
               AG WELLS  =   807776960.0000                 AG WELLS  =           0.0000
      DIVERSION SEGMENTS =           0.0000        DIVERSION SEGMENTS =           0.0000
       IRRIGATION PONDS  =           0.0000         IRRIGATION PONDS  =           0.0000
           GW IRRIGATION =           0.0000             GW IRRIGATION =           0.0000
           SW IRRIGATION =           0.0000             SW IRRIGATION =           0.0000
        SYSTEM LOSSES GW =           0.0000          SYSTEM LOSSES GW =           0.0000
        SYSTEM LOSSES SW =           0.0000          SYSTEM LOSSES SW =           0.0000

                TOTAL IN =   807776960.0000                  TOTAL IN =           0.0000

          OUT:                                     OUT:
          ----                                     ----
               AG WELLS  =           0.0000                 AG WELLS  =           0.0000
      DIVERSION SEGMENTS =           0.0000        DIVERSION SEGMENTS =           0.0000
       IRRIGATION PONDS  =           0.0000         IRRIGATION PONDS  =           0.0000
           GW IRRIGATION =   807776960.0000             GW IRRIGATION =           0.0000
           SW IRRIGATION =           0.0000             SW IRRIGATION =           0.0000
        SYSTEM LOSSES GW =           0.0000          SYSTEM LOSSES GW =           0.0000
        SYSTEM LOSSES SW =           0.0000          SYSTEM LOSSES SW =           0.0000

               TOTAL OUT =   807776960.0000                 TOTAL OUT =           0.0000

                IN - OUT =           0.0000                  IN - OUT =           0.0000

     PERCENT DISCREPANCY =           0.00         PERCENT DISCREPANCY =           0.00



1
  VOLUMETRIC BUDGET FOR ENTIRE MODEL AT END OF TIME STEP   30, STRESS PERIOD  26
  ------------------------------------------------------------------------------

     CUMULATIVE VOLUMES      L**3       RATES FOR THIS TIME STEP      L**3/T
     ------------------                 ------------------------

           IN:                                      IN:
           ---                                      ---
             STORAGE     =  1116213376.0000               STORAGE     =           6.4507
       CONSTANT HEAD     =           0.0000         CONSTANT HEAD     =           0.0000
     HEAD DEP BOUNDS     =    18817402.0000       HEAD DEP BOUNDS     =           0.2864
      STREAM LEAKAGE     =   793609152.0000        STREAM LEAKAGE     =          11.6721
        UZF RECHARGE     =       73223.9531          UZF RECHARGE     =           0.0000
               GW ET     =           0.0000                 GW ET     =           0.0000
     SURFACE LEAKAGE     =           0.0000       SURFACE LEAKAGE     =           0.0000
           AG WELLS      =           0.0000             AG WELLS      =           0.0000

                TOTAL IN =  1928713216.0000                  TOTAL IN =          18.4092

          OUT:                                     OUT:
          ----                                     ----
             STORAGE     =   404531584.0000               STORAGE     =           8.0045
       CONSTANT HEAD     =           0.0000         CONSTANT HEAD     =           0.0000
     HEAD DEP BOUNDS     =    19224120.0000       HEAD DEP BOUNDS     =           0.2888
      STREAM LEAKAGE     =   689869568.0000        STREAM LEAKAGE     =          10.1159
        UZF RECHARGE     =           0.0000          UZF RECHARGE     =           0.0000
               GW ET     =     7311766.5000                 GW ET     =           0.0000
     SURFACE LEAKAGE     =           0.0000       SURFACE LEAKAGE     =           0.0000
           AG WELLS      =   807776960.0000             AG WELLS      =           0.0000

               TOTAL OUT =  1928713984.0000                 TOTAL OUT =          18.4092

                IN - OUT =        -768.0000                  IN - OUT =       9.5367E-06

     PERCENT DISCREPANCY =          -0.00         PERCENT DISCREPANCY =           0.00






         TIME SUMMARY AT END OF TIME STEP   30 IN STRESS PERIOD   26
                    SECONDS     MINUTES      HOURS       DAYS        YEARS
                    -----------------------------------------------------------
   TIME STEP LENGTH  87667.      1461.1      24.352      1.0147     2.77799E-03
 STRESS PERIOD TIME 2.63000E+06  43833.      730.56      30.440     8.33397E-02
         TOTAL TIME 6.58368E+07 1.09728E+06  18288.      762.00      2.0862    
1
1
                            STRESS PERIOD NO.   27, LENGTH =   2630000.    
                            -----------------------------------------------

                              NUMBER OF TIME STEPS =    30

                               MULTIPLIER FOR DELT =     1.000

                            INITIAL TIME STEP SIZE =   87666.66    

 REUSING NON-PARAMETER GHB CELLS FROM LAST STRESS PERIOD

      2 GHB CELLS

 REUSING STREAM SEGMENT DATA FROM LAST STRESS PERIOD



            AREAL INFILTRATION RATE
 READING ON UNIT   19 WITH FORMAT: (FREE)              

            1           2           3           4           5           6           7           8           9          10
 ........................................................................................................................
   1   1.0000E-10  2.0000E-10   0.000       0.000       0.000       0.000       0.000       0.000       0.000       0.000    
   2   2.0000E-10  1.0000E-10  2.0000E-10   0.000       0.000      8.0000E-10  8.0000E-10  5.0000E-10   0.000       0.000    
   3    0.000      5.0000E-10  1.0000E-10  1.0000E-10  8.0000E-10  8.0000E-10  5.0000E-10  5.0000E-10   0.000       0.000    
   4   8.0000E-10  5.0000E-10  1.0000E-10  1.0000E-10  1.0000E-10  1.0000E-10  1.0000E-10  1.0000E-10  2.0000E-10   0.000    
   5   8.0000E-10  5.0000E-10  1.0000E-10  1.0000E-10  1.0000E-10  1.0000E-10  1.0000E-10  1.0000E-10  1.0000E-10  1.0000E-10
   6   8.0000E-10  5.0000E-10  5.0000E-10  2.0000E-10  2.0000E-10  1.0000E-10  1.0000E-10  1.0000E-10  1.0000E-10  5.0000E-10
   7   8.0000E-10  5.0000E-10  5.0000E-10  2.0000E-10  2.0000E-10  1.0000E-10  1.0000E-10  2.0000E-10  2.0000E-10   0.000    
   8    0.000      5.0000E-10  5.0000E-10  2.0000E-10  2.0000E-10  1.0000E-10  1.0000E-10  2.0000E-10  5.0000E-10   0.000    
   9    0.000      5.0000E-10  5.0000E-10  2.0000E-10  2.0000E-10  1.0000E-10  1.0000E-10  2.0000E-10  5.0000E-10   0.000    
  10    0.000      5.0000E-10  5.0000E-10  2.0000E-10  2.0000E-10  1.0000E-10  1.0000E-10  2.0000E-10  5.0000E-10  8.0000E-10
  11    0.000      1.0000E-10  1.0000E-10  1.0000E-10  1.0000E-10  1.0000E-10  1.0000E-10  2.0000E-10  5.0000E-10   0.000    
  12   1.0000E-10  1.0000E-10  1.0000E-10  1.0000E-10  1.0000E-10  1.0000E-10  1.0000E-10  1.0000E-10  2.0000E-10   0.000    
  13   1.0000E-10  1.0000E-10  2.0000E-10  2.0000E-10  2.0000E-10  2.0000E-10  2.0000E-10  1.0000E-10  1.0000E-10   0.000    
  14    0.000      2.0000E-10  5.0000E-10  5.0000E-10  5.0000E-10  5.0000E-10  5.0000E-10  2.0000E-10  1.0000E-10   0.000    
  15    0.000       0.000      8.0000E-10  8.0000E-10  8.0000E-10  8.0000E-10   0.000       0.000       0.000       0.000    

                  ET RATE =  5.000000E-10

 USING ET EXTINCTION DEPTH FROM PREVIOUS STRESS PERIOD. CURRENT PERIOD IS:      27

 USING EXTINCTION WATER CONTENT FROM PREVIOUS STRESS PERIOD. CURRENT PERIOD IS:      27

 USING AIR ENTRY PRESSURE FROM PREVIOUS STRESS PERIOD. CURRENT PERIOD IS:      27

 USING ROOT PRESSURE HEAD FROM PREVIOUS STRESS PERIOD. CURRENT PERIOD IS:      27

 USING ROOT ACTIVITY FROM PREVIOUS STRESS PERIOD. CURRENT PERIOD IS:      27

 PROCESSING AG STRESS PERIOD DATA

 READING AG STRESS PERIOD DATA

 READING IRRIGATION SEGMENT

 READING IRRIGATION WELL

 READING SUPPLEMENTAL WELL

 NO IRRPOND OR REUSING IRRPOND DATA FROM LAST STRESS PERIOD

 END PROCESSING AG STRESS PERIOD DATA OPTIONS
 
 SOLVING FOR HEAD 
                                                   Max.-Head-Change                         Max.-Flux-Residual
  Residual-Control   Outer-Iter.   Inner-Iter.     Column Row Layer    Maximum-Head-Change  Column Row Layer    Maximum-Flux-Residual          L2-NORM 
          0                 1           2             4    7     1       0.1743309326E-01       4    7    1         0.9145084566E+00      0.2254430721E+01
          0                 2           2             4    7     1      -0.1695770671E-02       4    7    1        -0.9145125338E-01      0.2254423959E+00
          0                 3           1             4    7     1       0.1154756398E-03       4    7    1         0.6401586642E-02      0.1578094844E-01
          0                 4           1             4    7     1      -0.4594887246E-05       4    7    1        -0.2618252729E-03      0.6455458602E-03

    ------------------------------------------------
       NWT REQUIRED            4 OUTER ITERATIONS 
       AND A TOTAL OF          6 INNER ITERATIONS.
    ------------------------------------------------

 NO OUTPUT CONTROL FOR STRESS PERIOD   27   TIME STEP    1
 
 SOLVING FOR HEAD 
                                                   Max.-Head-Change                         Max.-Flux-Residual
  Residual-Control   Outer-Iter.   Inner-Iter.     Column Row Layer    Maximum-Head-Change  Column Row Layer    Maximum-Flux-Residual          L2-NORM 
          0                 1           2             4    7     1       0.1726772195E-01       4    7    1         0.9057913521E+00      0.2235848213E+01
          0                 2           2             4    7     1      -0.1679684423E-02       4    7    1        -0.9057953428E-01      0.2235820254E+00
          0                 3           1             4    7     1       0.1143802272E-03       4    7    1         0.6340566371E-02      0.1565044386E-01
          0                 4           1             4    7     1      -0.4551299591E-05       4    7    1        -0.2593295387E-03      0.6401079271E-03

    ------------------------------------------------
       NWT REQUIRED            4 OUTER ITERATIONS 
       AND A TOTAL OF          6 INNER ITERATIONS.
    ------------------------------------------------

 NO OUTPUT CONTROL FOR STRESS PERIOD   27   TIME STEP    2
 
 SOLVING FOR HEAD 
                                                   Max.-Head-Change                         Max.-Flux-Residual
  Residual-Control   Outer-Iter.   Inner-Iter.     Column Row Layer    Maximum-Head-Change  Column Row Layer    Maximum-Flux-Residual          L2-NORM 
          0                 1           2             4    7     1       0.1710501001E-01       4    7    1         0.8972097147E+00      0.2283597867E+01
          0                 2           2             4    7     1      -0.1663856861E-02       4    7    1        -0.8972136200E-01      0.2279948366E+00
          0                 3           1             4    7     1       0.1133024297E-03       4    7    1         0.6280494355E-02      0.1592542882E-01
          0                 4           1             4    7     1      -0.4508412948E-05       4    7    1        -0.2568725808E-03      0.6492727169E-03

    ------------------------------------------------
       NWT REQUIRED            4 OUTER ITERATIONS 
       AND A TOTAL OF          6 INNER ITERATIONS.
    ------------------------------------------------

 NO OUTPUT CONTROL FOR STRESS PERIOD   27   TIME STEP    3
 
 SOLVING FOR HEAD 
                                                   Max.-Head-Change                         Max.-Flux-Residual
  Residual-Control   Outer-Iter.   Inner-Iter.     Column Row Layer    Maximum-Head-Change  Column Row Layer    Maximum-Flux-Residual          L2-NORM 
          0                 1           2             4    7     1       0.1694448838E-01       4    7    1         0.8887439763E+00      0.2257161942E+01
          0                 2           2             4    7     1      -0.1648242359E-02       4    7    1        -0.8887477982E-01      0.2254063220E+00
          0                 3           1             4    7     1       0.1122391414E-03       4    7    1         0.6221233655E-02      0.1574986147E-01
          0                 4           1             4    7     1      -0.4466103555E-05       4    7    1        -0.2544488298E-03      0.6424977960E-03

    ------------------------------------------------
       NWT REQUIRED            4 OUTER ITERATIONS 
       AND A TOTAL OF          6 INNER ITERATIONS.
    ------------------------------------------------

 NO OUTPUT CONTROL FOR STRESS PERIOD   27   TIME STEP    4
 
 SOLVING FOR HEAD 
                                                   Max.-Head-Change                         Max.-Flux-Residual
  Residual-Control   Outer-Iter.   Inner-Iter.     Column Row Layer    Maximum-Head-Change  Column Row Layer    Maximum-Flux-Residual          L2-NORM 
          0                 1           2             4    7     1       0.1678651884E-01       4    7    1         0.8804137872E+00      0.2232486409E+01
          0                 2           2             4    7     1      -0.1632876109E-02       4    7    1        -0.8804175280E-01      0.2229844223E+00
          0                 3           1             4    7     1       0.1111927582E-03       4    7    1         0.6162921819E-02      0.1558454368E-01
          0                 4           1             4    7     1      -0.4424467083E-05       4    7    1        -0.2520638818E-03      0.6359093507E-03

    ------------------------------------------------
       NWT REQUIRED            4 OUTER ITERATIONS 
       AND A TOTAL OF          6 INNER ITERATIONS.
    ------------------------------------------------

 NO OUTPUT CONTROL FOR STRESS PERIOD   27   TIME STEP    5
 
 SOLVING FOR HEAD 
                                                   Max.-Head-Change                         Max.-Flux-Residual
  Residual-Control   Outer-Iter.   Inner-Iter.     Column Row Layer    Maximum-Head-Change  Column Row Layer    Maximum-Flux-Residual          L2-NORM 
          0                 1           2             4    7     1       0.1663077192E-01       4    7    1         0.8722012630E+00      0.2209317722E+01
          0                 2           2             4    7     1      -0.1617726063E-02       4    7    1        -0.8722049245E-01      0.2207071581E+00
          0                 3           1             4    7     1       0.1101610971E-03       4    7    1         0.6105433648E-02      0.1542894637E-01
          0                 4           1             4    7     1      -0.4383415919E-05       4    7    1        -0.2497125849E-03      0.6297007268E-03

    ------------------------------------------------
       NWT REQUIRED            4 OUTER ITERATIONS 
       AND A TOTAL OF          6 INNER ITERATIONS.
    ------------------------------------------------

 NO OUTPUT CONTROL FOR STRESS PERIOD   27   TIME STEP    6
 
 SOLVING FOR HEAD 
                                                   Max.-Head-Change                         Max.-Flux-Residual
  Residual-Control   Outer-Iter.   Inner-Iter.     Column Row Layer    Maximum-Head-Change  Column Row Layer    Maximum-Flux-Residual          L2-NORM 
          0                 1           2             4    7     1       0.1647733711E-01       4    7    1         0.8641113072E+00      0.2187460161E+01
          0                 2           2             4    7     1      -0.1602800925E-02       4    7    1        -0.8641148916E-01      0.2185549294E+00
          0                 3           1             4    7     1       0.1091447518E-03       4    7    1         0.6048803464E-02      0.1528139770E-01
          0                 4           1             4    7     1      -0.4342975047E-05       4    7    1        -0.2473964171E-03      0.6238082758E-03

    ------------------------------------------------
       NWT REQUIRED            4 OUTER ITERATIONS 
       AND A TOTAL OF          6 INNER ITERATIONS.
    ------------------------------------------------

 NO OUTPUT CONTROL FOR STRESS PERIOD   27   TIME STEP    7
 
 SOLVING FOR HEAD 
                                                   Max.-Head-Change                         Max.-Flux-Residual
  Residual-Control   Outer-Iter.   Inner-Iter.     Column Row Layer    Maximum-Head-Change  Column Row Layer    Maximum-Flux-Residual          L2-NORM 
          0                 1           2             4    7     1       0.1632602842E-01       4    7    1         0.8561339010E+00      0.2166724765E+01
          0                 2           2             4    7     1      -0.1588082605E-02       4    7    1        -0.8561374102E-01      0.2165096514E+00
          0                 3           1             4    7     1       0.1081424897E-03       4    7    1         0.5992961128E-02      0.1514076532E-01
          0                 4           1             4    7     1      -0.4303093925E-05       4    7    1        -0.2451124692E-03      0.6183599171E-03

    ------------------------------------------------
       NWT REQUIRED            4 OUTER ITERATIONS 
       AND A TOTAL OF          6 INNER ITERATIONS.
    ------------------------------------------------

 NO OUTPUT CONTROL FOR STRESS PERIOD   27   TIME STEP    8
 
 SOLVING FOR HEAD 
                                                   Max.-Head-Change                         Max.-Flux-Residual
  Residual-Control   Outer-Iter.   Inner-Iter.     Column Row Layer    Maximum-Head-Change  Column Row Layer    Maximum-Flux-Residual          L2-NORM 
          0                 1           2             4    7     1       0.1617693700E-01       4    7    1         0.8482740609E+00      0.2146979550E+01
          0                 2           2             4    7     1      -0.1574176877E-02       4    7    1        -0.8487944344E-01      0.2145732611E+00
          0                 3           1             4    7     1       0.1071955591E-03       4    7    1         0.5941560136E-02      0.1500737743E-01
          0                 4           1             4    7     1      -0.4265414504E-05       4    7    1        -0.2430101570E-03      0.6129597059E-03

    ------------------------------------------------
       NWT REQUIRED            4 OUTER ITERATIONS 
       AND A TOTAL OF          6 INNER ITERATIONS.
    ------------------------------------------------

 NO OUTPUT CONTROL FOR STRESS PERIOD   27   TIME STEP    9
 
 SOLVING FOR HEAD 
                                                   Max.-Head-Change                         Max.-Flux-Residual
  Residual-Control   Outer-Iter.   Inner-Iter.     Column Row Layer    Maximum-Head-Change  Column Row Layer    Maximum-Flux-Residual          L2-NORM 
          0                 1           2             4    7     1       0.1602625882E-01       4    7    1         0.8404973655E+00      0.2128091023E+01
          0                 2           2             4    7     1      -0.1558923292E-02       4    7    1        -0.8405009470E-01      0.2126914164E+00
          0                 3           1             4    7     1       0.1061568474E-03       4    7    1         0.5883505768E-02      0.1487767717E-01
          0                 4           1             4    7     1      -0.4224083235E-05       4    7    1        -0.2406357289E-03      0.6078366751E-03

    ------------------------------------------------
       NWT REQUIRED            4 OUTER ITERATIONS 
       AND A TOTAL OF          6 INNER ITERATIONS.
    ------------------------------------------------

 NO OUTPUT CONTROL FOR STRESS PERIOD   27   TIME STEP   10
 
 SOLVING FOR HEAD 
                                                   Max.-Head-Change                         Max.-Flux-Residual
  Residual-Control   Outer-Iter.   Inner-Iter.     Column Row Layer    Maximum-Head-Change  Column Row Layer    Maximum-Flux-Residual          L2-NORM 
          0                 1           2             4    7     1       0.1587856616E-01       4    7    1         0.8327020138E+00      0.2109921167E+01
          0                 2           2             4    7     1      -0.1544556701E-02       4    7    1        -0.8327055125E-01      0.2108918846E+00
          0                 3           1             4    7     1       0.1051785374E-03       4    7    1         0.5828937800E-02      0.1475322078E-01
          0                 4           1             4    7     1      -0.4185155484E-05       4    7    1        -0.2384039010E-03      0.6029307221E-03

    ------------------------------------------------
       NWT REQUIRED            4 OUTER ITERATIONS 
       AND A TOTAL OF          6 INNER ITERATIONS.
    ------------------------------------------------

 NO OUTPUT CONTROL FOR STRESS PERIOD   27   TIME STEP   11
 
 SOLVING FOR HEAD 
                                                   Max.-Head-Change                         Max.-Flux-Residual
  Residual-Control   Outer-Iter.   Inner-Iter.     Column Row Layer    Maximum-Head-Change  Column Row Layer    Maximum-Flux-Residual          L2-NORM 
          0                 1           2             4    7     1       0.1573305265E-01       4    7    1         0.8250223265E+00      0.2092421378E+01
          0                 2           2             4    7     1      -0.1530402084E-02       4    7    1        -0.8250257445E-01      0.2091568828E+00
          0                 3           1             4    7     1       0.1042146615E-03       4    7    1         0.5775179463E-02      0.1463304256E-01
          0                 4           1             4    7     1      -0.4146802106E-05       4    7    1        -0.2362051844E-03      0.5979081806E-03

    ------------------------------------------------
       NWT REQUIRED            4 OUTER ITERATIONS 
       AND A TOTAL OF          6 INNER ITERATIONS.
    ------------------------------------------------

 NO OUTPUT CONTROL FOR STRESS PERIOD   27   TIME STEP   12
 
 SOLVING FOR HEAD 
                                                   Max.-Head-Change                         Max.-Flux-Residual
  Residual-Control   Outer-Iter.   Inner-Iter.     Column Row Layer    Maximum-Head-Change  Column Row Layer    Maximum-Flux-Residual          L2-NORM 
          0                 1           2             4    7     1       0.1558992987E-01       4    7    1         0.8174702868E+00      0.2075519056E+01
          0                 2           2             4    7     1      -0.1516480026E-02       4    7    1        -0.8174736267E-01      0.2074793671E+00
          0                 3           1             4    7     1       0.1032666223E-03       4    7    1         0.5722314701E-02      0.1451676826E-01
          0                 4           1             4    7     1      -0.4109078821E-05       4    7    1        -0.2340430149E-03      0.5933352682E-03

    ------------------------------------------------
       NWT REQUIRED            4 OUTER ITERATIONS 
       AND A TOTAL OF          6 INNER ITERATIONS.
    ------------------------------------------------

 NO OUTPUT CONTROL FOR STRESS PERIOD   27   TIME STEP   13
 
 SOLVING FOR HEAD 
                                                   Max.-Head-Change                         Max.-Flux-Residual
  Residual-Control   Outer-Iter.   Inner-Iter.     Column Row Layer    Maximum-Head-Change  Column Row Layer    Maximum-Flux-Residual          L2-NORM 
          0                 1           2             4    7     1       0.1544886314E-01       4    7    1         0.8100275415E+00      0.2059137248E+01
          0                 2           2             4    7     1      -0.1502757967E-02       4    7    1        -0.8100308057E-01      0.2058523086E+00
          0                 3           1             4    7     1       0.1023322022E-03       4    7    1         0.5670215002E-02      0.1440402354E-01
          0                 4           1             4    7     1      -0.4071897326E-05       4    7    1        -0.2319121354E-03      0.5887640558E-03

    ------------------------------------------------
       NWT REQUIRED            4 OUTER ITERATIONS 
       AND A TOTAL OF          6 INNER ITERATIONS.
    ------------------------------------------------

 NO OUTPUT CONTROL FOR STRESS PERIOD   27   TIME STEP   14
 
 SOLVING FOR HEAD 
                                                   Max.-Head-Change                         Max.-Flux-Residual
  Residual-Control   Outer-Iter.   Inner-Iter.     Column Row Layer    Maximum-Head-Change  Column Row Layer    Maximum-Flux-Residual          L2-NORM 
          0                 1           2             4    7     1       0.1530994046E-01       4    7    1         0.8026987296E+00      0.2043237917E+01
          0                 2           2             4    7     1      -0.1489244470E-02       4    7    1        -0.8027019202E-01      0.2042715793E+00
          0                 3           1             4    7     1       0.1014119838E-03       4    7    1         0.5618912846E-02      0.1429429387E-01
          0                 4           1             4    7     1      -0.4035280878E-05       4    7    1        -0.2298138593E-03      0.5844516153E-03

    ------------------------------------------------
       NWT REQUIRED            4 OUTER ITERATIONS 
       AND A TOTAL OF          6 INNER ITERATIONS.
    ------------------------------------------------

 NO OUTPUT CONTROL FOR STRESS PERIOD   27   TIME STEP   15
 
 SOLVING FOR HEAD 
                                                   Max.-Head-Change                         Max.-Flux-Residual
  Residual-Control   Outer-Iter.   Inner-Iter.     Column Row Layer    Maximum-Head-Change  Column Row Layer    Maximum-Flux-Residual          L2-NORM 
          0                 1           2             4    7     1       0.1517310414E-01       4    7    1         0.7954810836E+00      0.2027753887E+01
          0                 2           2             4    7     1      -0.1475933922E-02       4    7    1        -0.7954842028E-01      0.2027310794E+00
          0                 3           1             4    7     1       0.1005055860E-03       4    7    1         0.5568388870E-02      0.1418700233E-01
          0                 4           1             4    7     1      -0.3999214509E-05       4    7    1        -0.2277474398E-03      0.5799483411E-03

    ------------------------------------------------
       NWT REQUIRED            4 OUTER ITERATIONS 
       AND A TOTAL OF          6 INNER ITERATIONS.
    ------------------------------------------------

 NO OUTPUT CONTROL FOR STRESS PERIOD   27   TIME STEP   16
 
 SOLVING FOR HEAD 
                                                   Max.-Head-Change                         Max.-Flux-Residual
  Residual-Control   Outer-Iter.   Inner-Iter.     Column Row Layer    Maximum-Head-Change  Column Row Layer    Maximum-Flux-Residual          L2-NORM 
          0                 1           2             4    7     1       0.1503830473E-01       4    7    1         0.7883716128E+00      0.2012670851E+01
          0                 2           2             4    7     1      -0.1462821512E-02       4    7    1        -0.7883746628E-01      0.2012294844E+00
          0                 3           1             4    7     1       0.9961268072E-04       4    7    1         0.5518622146E-02      0.1408256036E-01

    ------------------------------------------------
       NWT REQUIRED            3 OUTER ITERATIONS 
       AND A TOTAL OF          5 INNER ITERATIONS.
    ------------------------------------------------

 NO OUTPUT CONTROL FOR STRESS PERIOD   27   TIME STEP   17
 
 SOLVING FOR HEAD 
                                                   Max.-Head-Change                         Max.-Flux-Residual
  Residual-Control   Outer-Iter.   Inner-Iter.     Column Row Layer    Maximum-Head-Change  Column Row Layer    Maximum-Flux-Residual          L2-NORM 
          0                 1           2             4    7     1       0.1490544556E-01       4    7    1         0.7813652455E+00      0.1997933980E+01
          0                 2           2             4    7     1      -0.1449897838E-02       4    7    1        -0.7813682282E-01      0.1997614528E+00
          0                 3           1             4    7     1       0.9873262701E-04       4    7    1         0.5469577123E-02      0.1398026547E-01

    ------------------------------------------------
       NWT REQUIRED            3 OUTER ITERATIONS 
       AND A TOTAL OF          5 INNER ITERATIONS.
    ------------------------------------------------

 NO OUTPUT CONTROL FOR STRESS PERIOD   27   TIME STEP   18
 
 SOLVING FOR HEAD 
                                                   Max.-Head-Change                         Max.-Flux-Residual
  Residual-Control   Outer-Iter.   Inner-Iter.     Column Row Layer    Maximum-Head-Change  Column Row Layer    Maximum-Flux-Residual          L2-NORM 
          0                 1           2             4    7     1       0.1477452410E-01       4    7    1         0.7744620179E+00      0.1983515277E+01
          0                 2           2             4    7     1      -0.1437162653E-02       4    7    1        -0.7744649354E-01      0.1983245450E+00
          0                 3           1             4    7     1       0.9786540940E-04       4    7    1         0.5421254138E-02      0.1388020081E-01

    ------------------------------------------------
       NWT REQUIRED            3 OUTER ITERATIONS 
       AND A TOTAL OF          5 INNER ITERATIONS.
    ------------------------------------------------

 NO OUTPUT CONTROL FOR STRESS PERIOD   27   TIME STEP   19
 
 SOLVING FOR HEAD 
                                                   Max.-Head-Change                         Max.-Flux-Residual
  Residual-Control   Outer-Iter.   Inner-Iter.     Column Row Layer    Maximum-Head-Change  Column Row Layer    Maximum-Flux-Residual          L2-NORM 
          0                 1           2             4    7     1       0.1464549601E-01       4    7    1         0.7676592565E+00      0.1969401573E+01
          0                 2           2             4    7     1      -0.1424611644E-02       4    7    1        -0.7676621103E-01      0.1969173705E+00
          0                 3           1             4    7     1       0.9701073263E-04       4    7    1         0.5373634380E-02      0.1378207752E-01

    ------------------------------------------------
       NWT REQUIRED            3 OUTER ITERATIONS 
       AND A TOTAL OF          5 INNER ITERATIONS.
    ------------------------------------------------

 NO OUTPUT CONTROL FOR STRESS PERIOD   27   TIME STEP   20
 
 SOLVING FOR HEAD 
                                                   Max.-Head-Change                         Max.-Flux-Residual
  Residual-Control   Outer-Iter.   Inner-Iter.     Column Row Layer    Maximum-Head-Change  Column Row Layer    Maximum-Flux-Residual          L2-NORM 
          0                 1           2             4    7     1       0.1451831694E-01       4    7    1         0.7609546631E+00      0.1955560578E+01
          0                 2           2             4    7     1      -0.1412240497E-02       4    7    1        -0.7609574551E-01      0.1955367275E+00
          0                 3           1             4    7     1       0.9616830418E-04       4    7    1         0.5326701830E-02      0.1368592540E-01

    ------------------------------------------------
       NWT REQUIRED            3 OUTER ITERATIONS 
       AND A TOTAL OF          5 INNER ITERATIONS.
    ------------------------------------------------

 NO OUTPUT CONTROL FOR STRESS PERIOD   27   TIME STEP   21
 
 SOLVING FOR HEAD 
                                                   Max.-Head-Change                         Max.-Flux-Residual
  Residual-Control   Outer-Iter.   Inner-Iter.     Column Row Layer    Maximum-Head-Change  Column Row Layer    Maximum-Flux-Residual          L2-NORM 
          0                 1           2             4    7     1       0.1439307433E-01       4    7    1         0.7543532713E+00      0.1941976733E+01
          0                 2           2             4    7     1      -0.1400057717E-02       4    7    1        -0.7543560033E-01      0.1941813754E+00
          0                 3           1             4    7     1       0.9533870342E-04       4    7    1         0.5280491720E-02      0.1359115199E-01

    ------------------------------------------------
       NWT REQUIRED            3 OUTER ITERATIONS 
       AND A TOTAL OF          5 INNER ITERATIONS.
    ------------------------------------------------

 NO OUTPUT CONTROL FOR STRESS PERIOD   27   TIME STEP   22
 
 SOLVING FOR HEAD 
                                                   Max.-Head-Change                         Max.-Flux-Residual
  Residual-Control   Outer-Iter.   Inner-Iter.     Column Row Layer    Maximum-Head-Change  Column Row Layer    Maximum-Flux-Residual          L2-NORM 
          0                 1           2             4    7     1       0.1426945539E-01       4    7    1         0.7478376143E+00      0.1928636600E+01
          0                 2           2             4    7     1      -0.1388032879E-02       4    7    1        -0.7478402881E-01      0.1928499963E+00
          0                 3           1             4    7     1       0.9451985698E-04       4    7    1         0.5234881735E-02      0.1349823590E-01

    ------------------------------------------------
       NWT REQUIRED            3 OUTER ITERATIONS 
       AND A TOTAL OF          5 INNER ITERATIONS.
    ------------------------------------------------

 NO OUTPUT CONTROL FOR STRESS PERIOD   27   TIME STEP   23
 
 SOLVING FOR HEAD 
                                                   Max.-Head-Change                         Max.-Flux-Residual
  Residual-Control   Outer-Iter.   Inner-Iter.     Column Row Layer    Maximum-Head-Change  Column Row Layer    Maximum-Flux-Residual          L2-NORM 
          0                 1           2             4    7     1       0.1414769270E-01       4    7    1         0.7414208090E+00      0.1915521012E+01
          0                 2           2             4    7     1      -0.1376188605E-02       4    7    1        -0.7414234260E-01      0.1915405588E+00
          0                 3           1             4    7     1       0.9371330701E-04       4    7    1         0.5189963751E-02      0.1340675815E-01

    ------------------------------------------------
       NWT REQUIRED            3 OUTER ITERATIONS 
       AND A TOTAL OF          5 INNER ITERATIONS.
    ------------------------------------------------

 NO OUTPUT CONTROL FOR STRESS PERIOD   27   TIME STEP   24
 
 SOLVING FOR HEAD 
                                                   Max.-Head-Change                         Max.-Flux-Residual
  Residual-Control   Outer-Iter.   Inner-Iter.     Column Row Layer    Maximum-Head-Change  Column Row Layer    Maximum-Flux-Residual          L2-NORM 
          0                 1           2             4    7     1       0.1402760537E-01       4    7    1         0.7350929131E+00      0.1902618599E+01
          0                 2           2             4    7     1      -0.1364507301E-02       4    7    1        -0.7350954749E-01      0.1902521618E+00
          0                 3           1             4    7     1       0.9291785441E-04       4    7    1         0.5145668121E-02      0.1331670000E-01

    ------------------------------------------------
       NWT REQUIRED            3 OUTER ITERATIONS 
       AND A TOTAL OF          5 INNER ITERATIONS.
    ------------------------------------------------

 NO OUTPUT CONTROL FOR STRESS PERIOD   27   TIME STEP   25
 
 SOLVING FOR HEAD 
                                                   Max.-Head-Change                         Max.-Flux-Residual
  Residual-Control   Outer-Iter.   Inner-Iter.     Column Row Layer    Maximum-Head-Change  Column Row Layer    Maximum-Flux-Residual          L2-NORM 
          0                 1           2             4    7     1       0.1390902434E-01       4    7    1         0.7288445477E+00      0.1889915504E+01
          0                 2           2             4    7     1      -0.1352972521E-02       4    7    1        -0.7288470558E-01      0.1889834983E+00
          0                 3           1             4    7     1       0.9213237925E-04       4    7    1         0.5101929224E-02      0.1322806139E-01

    ------------------------------------------------
       NWT REQUIRED            3 OUTER ITERATIONS 
       AND A TOTAL OF          5 INNER ITERATIONS.
    ------------------------------------------------

 NO OUTPUT CONTROL FOR STRESS PERIOD   27   TIME STEP   26
 
 SOLVING FOR HEAD 
                                                   Max.-Head-Change                         Max.-Flux-Residual
  Residual-Control   Outer-Iter.   Inner-Iter.     Column Row Layer    Maximum-Head-Change  Column Row Layer    Maximum-Flux-Residual          L2-NORM 
          0                 1           2             4    7     1       0.1379232049E-01       4    7    1         0.7226962833E+00      0.1877414384E+01
          0                 2           2             4    7     1      -0.1341620341E-02       4    7    1        -0.7226987391E-01      0.1877346385E+00
          0                 3           1             4    7     1       0.9135933867E-04       4    7    1         0.5058891031E-02      0.1314079573E-01

    ------------------------------------------------
       NWT REQUIRED            3 OUTER ITERATIONS 
       AND A TOTAL OF          5 INNER ITERATIONS.
    ------------------------------------------------

 NO OUTPUT CONTROL FOR STRESS PERIOD   27   TIME STEP   27
 
 SOLVING FOR HEAD 
                                                   Max.-Head-Change                         Max.-Flux-Residual
  Residual-Control   Outer-Iter.   Inner-Iter.     Column Row Layer    Maximum-Head-Change  Column Row Layer    Maximum-Flux-Residual          L2-NORM 
          0                 1           2             4    7     1       0.1367704618E-01       4    7    1         0.7166233444E+00      0.1865093763E+01
          0                 2           2             4    7     1      -0.1330407219E-02       4    7    1        -0.7166257492E-01      0.1865038571E+00
          0                 3           1             4    7     1       0.9059576703E-04       4    7    1         0.5016380135E-02      0.1305476694E-01

    ------------------------------------------------
       NWT REQUIRED            3 OUTER ITERATIONS 
       AND A TOTAL OF          5 INNER ITERATIONS.
    ------------------------------------------------

 NO OUTPUT CONTROL FOR STRESS PERIOD   27   TIME STEP   28
 
 SOLVING FOR HEAD 
                                                   Max.-Head-Change                         Max.-Flux-Residual
  Residual-Control   Outer-Iter.   Inner-Iter.     Column Row Layer    Maximum-Head-Change  Column Row Layer    Maximum-Flux-Residual          L2-NORM 
          0                 1           2             4    7     1       0.1356343667E-01       4    7    1         0.7106391936E+00      0.1852943500E+01
          0                 2           2             4    7     1      -0.1319356037E-02       4    7    1        -0.7106415491E-01      0.1852896402E+00
          0                 3           1             4    7     1       0.8984322378E-04       4    7    1         0.4974490775E-02      0.1296981836E-01

    ------------------------------------------------
       NWT REQUIRED            3 OUTER ITERATIONS 
       AND A TOTAL OF          5 INNER ITERATIONS.
    ------------------------------------------------

 NO OUTPUT CONTROL FOR STRESS PERIOD   27   TIME STEP   29
 
 SOLVING FOR HEAD 
                                                   Max.-Head-Change                         Max.-Flux-Residual
  Residual-Control   Outer-Iter.   Inner-Iter.     Column Row Layer    Maximum-Head-Change  Column Row Layer    Maximum-Flux-Residual          L2-NORM 
          0                 1           2             4    7     1       0.1345132237E-01       4    7    1         0.7047340245E+00      0.1840969431E+01
          0                 2           2             4    7     1      -0.1308450302E-02       4    7    1        -0.7047363318E-01      0.1840930166E+00
          0                 3           1             4    7     1       0.8910058376E-04       4    7    1         0.4933154258E-02      0.1288610326E-01

    ------------------------------------------------
       NWT REQUIRED            3 OUTER ITERATIONS 
       AND A TOTAL OF          5 INNER ITERATIONS.
    ------------------------------------------------

 NO OUTPUT CONTROL FOR STRESS PERIOD   27   TIME STEP   30



 STREAM LISTING     PERIOD     27   STEP       30

 LAYER ROW COL. STREAM  RCH.  FLOW INTO     FLOW TO   FLOW OUT OF   OVRLND.     DIRECT     STREAM       STREAM     STREAM     STREAM   STREAMBED  STREAMBED
                SEG.NO.  NO.  STRM. RCH.    AQUIFER    STRM. RCH.    RUNOFF     PRECIP       ET          HEAD       DEPTH      WIDTH   CONDCTNC.   GRADIENT

   1    1    1     1     1    3.1499E+01  2.7310E-01   3.1226E+01  0.000E+00  0.000E+00  0.000E+00  1.09431E+03  1.262E+00  1.424E+01  6.407E-02  1.421E+00
   1    2    2     1     2    3.1226E+01  4.2272E-01   3.0803E+01  0.000E+00  0.000E+00  0.000E+00  1.08932E+03  1.259E+00  1.418E+01  9.925E-02  1.420E+00
   1    3    3     1     3    3.0803E+01  3.6028E-01   3.0443E+01  0.000E+00  0.000E+00  0.000E+00  1.08367E+03  1.256E+00  1.411E+01  8.466E-02  1.419E+00
   1    3    4     1     4    3.0443E+01  3.3158E-01   3.0111E+01  0.000E+00  0.000E+00  0.000E+00  1.07866E+03  1.253E+00  1.405E+01  7.797E-02  1.418E+00
   1    4    5     2     1    2.8111E+01  3.3470E-01   2.7777E+01  0.000E+00  0.000E+00  0.000E+00  1.07322E+03  1.291E+00  1.200E+01  7.800E-02  1.430E+00
   1    5    6     2     2    2.7777E+01  2.5697E-01   2.7520E+01  0.000E+00  0.000E+00  0.000E+00  1.06779E+03  1.283E+00  1.200E+01  6.000E-02  1.428E+00
   1    6    6     2     3    2.7520E+01  2.5654E-01   2.7263E+01  0.000E+00  0.000E+00  0.000E+00  1.06307E+03  1.276E+00  1.200E+01  6.000E-02  1.425E+00
   1    7    6     2     4    2.7263E+01  2.5611E-01   2.7007E+01  0.000E+00  0.000E+00  0.000E+00  1.05834E+03  1.268E+00  1.200E+01  6.000E-02  1.423E+00
   1    8    6     2     5    2.7007E+01  2.5567E-01   2.6751E+01  0.000E+00  0.000E+00  0.000E+00  1.05362E+03  1.261E+00  1.200E+01  6.000E-02  1.420E+00
   1    3    5     3     1    2.0000E+00  2.8252E-01   1.7175E+00  0.000E+00  0.000E+00  0.000E+00  1.07555E+03  1.909E+00  9.636E+00  7.227E-02  1.955E+00
   1    3    6     3     2    1.7175E+00  2.4905E-01   1.4684E+00  0.000E+00  0.000E+00  0.000E+00  1.07264E+03  1.727E+00  8.909E+00  6.682E-02  1.864E+00
   1    3    7     3     3    1.4684E+00  1.9718E-01   1.2712E+00  0.000E+00  0.000E+00  0.000E+00  1.06987E+03  1.555E+00  8.218E+00  5.547E-02  1.777E+00
   1    4    8     3     4    1.2712E+00  2.2567E-01   1.0456E+00  0.000E+00  0.000E+00  0.000E+00  1.06682E+03  1.364E+00  7.455E+00  6.709E-02  1.682E+00
   1    5    8     3     5    1.0456E+00  1.5790E-01   8.8768E-01  0.000E+00  0.000E+00  0.000E+00  1.06362E+03  1.164E+00  6.655E+00  4.991E-02  1.582E+00
   1    6    8     3     6    8.8768E-01  5.5980E-02   8.3170E-01  0.000E+00  0.000E+00  0.000E+00  1.06158E+03  1.036E+00  6.145E+00  1.844E-02  1.518E+00
   1    5   10     4     1    1.0000E+01  9.0919E-02   9.9091E+00  0.000E+00  0.000E+00  0.000E+00  1.07836E+03  6.368E-01  1.000E+01  2.500E-02  1.212E+00
   1    5    9     4     2    9.9091E+00  1.8158E-01   9.7275E+00  0.000E+00  0.000E+00  0.000E+00  1.07154E+03  6.315E-01  1.000E+01  5.000E-02  1.211E+00
   1    6    8     4     3    9.7275E+00  1.2689E-01   9.6006E+00  0.000E+00  0.000E+00  0.000E+00  1.06381E+03  6.256E-01  1.000E+01  3.500E-02  1.209E+00
   1    6    8     5     1    1.0432E+01  2.2686E-01   1.0205E+01  0.000E+00  0.000E+00  0.000E+00  1.05868E+03  6.790E-01  1.542E+01  6.166E-02  1.226E+00
   1    7    7     5     2    1.0205E+01  2.7894E-01   9.9265E+00  0.000E+00  0.000E+00  0.000E+00  1.05417E+03  6.732E-01  1.519E+01  7.594E-02  1.224E+00
   1    8    7     5     3    9.9265E+00  1.9221E-01   9.7343E+00  0.000E+00  0.000E+00  0.000E+00  1.04992E+03  6.676E-01  1.497E+01  5.241E-02  1.223E+00
   1    8    6     5     4    9.7343E+00  1.3577E-01   9.5985E+00  0.000E+00  0.000E+00  0.000E+00  1.04691E+03  6.637E-01  1.482E+01  3.706E-02  1.221E+00
   1    9    6     6     1    3.6350E+01  2.7151E-01   3.6078E+01  0.000E+00  0.000E+00  0.000E+00  1.04425E+03  1.525E+00  1.200E+01  6.000E-02  1.508E+00
   1   10    7     6     2    3.6078E+01  2.7109E-01   3.5807E+01  0.000E+00  0.000E+00  0.000E+00  1.03970E+03  1.518E+00  1.200E+01  6.000E-02  1.506E+00
   1   11    7     6     3    3.5807E+01  2.7068E-01   3.5537E+01  0.000E+00  0.000E+00  0.000E+00  1.03515E+03  1.511E+00  1.200E+01  6.000E-02  1.504E+00
   1   12    7     6     4    3.5537E+01  2.7027E-01   3.5266E+01  0.000E+00  0.000E+00  0.000E+00  1.03060E+03  1.504E+00  1.200E+01  6.000E-02  1.501E+00
   1   13    7     6     5    3.5266E+01  1.3214E-02   3.5253E+01  0.000E+00  0.000E+00  0.000E+00  1.02741E+03  1.501E+00  1.200E+01  2.400E-02  1.835E-01
   1   14    9     7     1    1.5000E+02  1.3462E+00   1.4865E+02  0.000E+00  0.000E+00  0.000E+00  1.03987E+03  2.288E+00  5.529E+01  5.593E-01  8.023E-01
   1   13    8     7     2    1.4865E+02  1.8893E+00   1.4676E+02  0.000E+00  0.000E+00  0.000E+00  1.03478E+03  2.279E+00  5.526E+01  6.148E-01  1.024E+00
   1   13    7     7     3    1.4676E+02  1.5802E+00   1.4518E+02  0.000E+00  0.000E+00  0.000E+00  1.02969E+03  2.270E+00  5.521E+01  5.584E-01  9.433E-01
   1   13    6     8     1    1.8044E+02  1.0841E+00   1.7935E+02  0.000E+00  0.000E+00  0.000E+00  1.02489E+03  3.016E+00  4.372E+01  4.456E-01  8.110E-01
   1   13    5     8     2    1.7935E+02  3.1808E-01   1.7904E+02  0.000E+00  0.000E+00  0.000E+00  1.01864E+03  3.011E+00  4.366E+01  4.449E-01  2.383E-01
   1   13    4     8     3    1.7904E+02 -1.9735E+00   1.8101E+02  0.000E+00  0.000E+00  0.000E+00  1.01239E+03  3.016E+00  4.374E+01  4.457E+00 -1.476E-01
   1   13    3     8     4    1.8101E+02 -3.4198E+00   1.8443E+02  0.000E+00  0.000E+00  0.000E+00  1.00616E+03  3.033E+00  4.398E+01  4.482E+00 -2.543E-01
   1   13    2     8     5    1.8443E+02 -2.4882E+00   1.8692E+02  0.000E+00  0.000E+00  0.000E+00  9.99926E+02  3.051E+00  4.425E+01  4.509E+00 -1.840E-01
   1   13    1     8     6    1.8692E+02 -1.9243E+00   1.8884E+02  0.000E+00  0.000E+00  0.000E+00  9.94940E+02  3.065E+00  4.444E+01  2.717E+00 -2.361E-01
   1    8    6     9     1    0.0000E+00  0.0000E+00   0.0000E+00  0.000E+00  0.000E+00  0.000E+00  1.07875E+03  0.000E+00  4.000E+00  0.000E+00  1.000E+00
   1    8    5     9     2    0.0000E+00  0.0000E+00   0.0000E+00  0.000E+00  0.000E+00  0.000E+00  1.07825E+03  0.000E+00  4.000E+00  0.000E+00  1.000E+00





UNSATURATED ZONE PACKAGE VOLUMETRIC BUDGET FOR  TIME STEP    30 STRESS PERIOD   27
  ------------------------------------------------------------------------------



     CUMULATIVE VOLUMES      L**3       RATES FOR THIS TIME STEP      L**3/T
     ------------------                 ------------------------

           IN:                                      IN:
           ---                                      ---
        INFILTRATION =   865803987.6962          INFILTRATION =           0.8475

          OUT:                                     OUT:
          ----                                     ----
              UZF ET =   864032820.4368                UZF ET =           0.7500
        UZF RECHARGE =       73224.0000          UZF RECHARGE =       0.0000E+00

            IN - OUT =     1697943.2593              IN - OUT =       9.7500E-02

          STORAGE:                                 STORAGE:
          --------                                 --------
      STORAGE CHANGE =     1697943.2863        STORAGE CHANGE =       9.7500E-02

 PERCENT DISCREPANCY IS DIFFERENCE BETWEEN IN-OUT MINUS CHANGE IN STORAGE
 DIVIDED BY THE AVERAGE OF IN AND OUT TIMES 100

 PERCENT DISCREPANCY =           0.00     PERCENT DISCREPANCY =           0.00






1
  VOLUMETRIC BUDGET FOR AGRICULTURAL FIELDS AT  END OF TIME STEP   30, STRESS PERIOD  27
  ------------------------------------------------------------------------------

     CUMULATIVE VOLUMES      L**3       RATES FOR THIS TIME STEP      L**3/T
     ------------------                 ------------------------

           IN:                                      IN:
           ---                                      ---
               AG WELLS  =   807776960.0000                 AG WELLS  =           0.0000
      DIVERSION SEGMENTS =           0.0000        DIVERSION SEGMENTS =           0.0000
       IRRIGATION PONDS  =           0.0000         IRRIGATION PONDS  =           0.0000
           GW IRRIGATION =           0.0000             GW IRRIGATION =           0.0000
           SW IRRIGATION =           0.0000             SW IRRIGATION =           0.0000
        SYSTEM LOSSES GW =           0.0000          SYSTEM LOSSES GW =           0.0000
        SYSTEM LOSSES SW =           0.0000          SYSTEM LOSSES SW =           0.0000

                TOTAL IN =   807776960.0000                  TOTAL IN =           0.0000

          OUT:                                     OUT:
          ----                                     ----
               AG WELLS  =           0.0000                 AG WELLS  =           0.0000
      DIVERSION SEGMENTS =           0.0000        DIVERSION SEGMENTS =           0.0000
       IRRIGATION PONDS  =           0.0000         IRRIGATION PONDS  =           0.0000
           GW IRRIGATION =   807776960.0000             GW IRRIGATION =           0.0000
           SW IRRIGATION =           0.0000             SW IRRIGATION =           0.0000
        SYSTEM LOSSES GW =           0.0000          SYSTEM LOSSES GW =           0.0000
        SYSTEM LOSSES SW =           0.0000          SYSTEM LOSSES SW =           0.0000

               TOTAL OUT =   807776960.0000                 TOTAL OUT =           0.0000

                IN - OUT =           0.0000                  IN - OUT =           0.0000

     PERCENT DISCREPANCY =           0.00         PERCENT DISCREPANCY =           0.00



1
  VOLUMETRIC BUDGET FOR ENTIRE MODEL AT END OF TIME STEP   30, STRESS PERIOD  27
  ------------------------------------------------------------------------------

     CUMULATIVE VOLUMES      L**3       RATES FOR THIS TIME STEP      L**3/T
     ------------------                 ------------------------

           IN:                                      IN:
           ---                                      ---
             STORAGE     =  1130108928.0000               STORAGE     =           4.7156
       CONSTANT HEAD     =           0.0000         CONSTANT HEAD     =           0.0000
     HEAD DEP BOUNDS     =    19570676.0000       HEAD DEP BOUNDS     =           0.2865
      STREAM LEAKAGE     =   826234944.0000        STREAM LEAKAGE     =          12.4638
        UZF RECHARGE     =       73223.9531          UZF RECHARGE     =           0.0000
               GW ET     =           0.0000                 GW ET     =           0.0000
     SURFACE LEAKAGE     =           0.0000       SURFACE LEAKAGE     =           0.0000
           AG WELLS      =           0.0000             AG WELLS      =           0.0000

                TOTAL IN =  1975987712.0000                  TOTAL IN =          17.4659

          OUT:                                     OUT:
          ----                                     ----
             STORAGE     =   425808416.0000               STORAGE     =           7.3702
       CONSTANT HEAD     =           0.0000         CONSTANT HEAD     =           0.0000
     HEAD DEP BOUNDS     =    19986460.0000       HEAD DEP BOUNDS     =           0.2906
      STREAM LEAKAGE     =   715105536.0000        STREAM LEAKAGE     =           9.8059
        UZF RECHARGE     =           0.0000          UZF RECHARGE     =           0.0000
               GW ET     =     7311766.5000                 GW ET     =           0.0000
     SURFACE LEAKAGE     =           0.0000       SURFACE LEAKAGE     =           0.0000
           AG WELLS      =   807776960.0000             AG WELLS      =           0.0000

               TOTAL OUT =  1975988992.0000                 TOTAL OUT =          17.4667

                IN - OUT =       -1280.0000                  IN - OUT =      -7.5531E-04

     PERCENT DISCREPANCY =          -0.00         PERCENT DISCREPANCY =          -0.00






         TIME SUMMARY AT END OF TIME STEP   30 IN STRESS PERIOD   27
                    SECONDS     MINUTES      HOURS       DAYS        YEARS
                    -----------------------------------------------------------
   TIME STEP LENGTH  87667.      1461.1      24.352      1.0147     2.77799E-03
 STRESS PERIOD TIME 2.63000E+06  43833.      730.56      30.440     8.33397E-02
         TOTAL TIME 6.84668E+07 1.14111E+06  19019.      792.44      2.1696    
1
1
                            STRESS PERIOD NO.   28, LENGTH =   2630000.    
                            -----------------------------------------------

                              NUMBER OF TIME STEPS =    30

                               MULTIPLIER FOR DELT =     1.000

                            INITIAL TIME STEP SIZE =   87666.66    

 REUSING NON-PARAMETER GHB CELLS FROM LAST STRESS PERIOD

      2 GHB CELLS

 REUSING STREAM SEGMENT DATA FROM LAST STRESS PERIOD



            AREAL INFILTRATION RATE
 READING ON UNIT   19 WITH FORMAT: (FREE)              

            1           2           3           4           5           6           7           8           9          10
 ........................................................................................................................
   1   1.0000E-10  2.0000E-10   0.000       0.000       0.000       0.000       0.000       0.000       0.000       0.000    
   2   2.0000E-10  1.0000E-10  2.0000E-10   0.000       0.000      8.0000E-10  8.0000E-10  5.0000E-10   0.000       0.000    
   3    0.000      5.0000E-10  1.0000E-10  1.0000E-10  8.0000E-10  8.0000E-10  5.0000E-10  5.0000E-10   0.000       0.000    
   4   8.0000E-10  5.0000E-10  1.0000E-10  1.0000E-10  1.0000E-10  1.0000E-10  1.0000E-10  1.0000E-10  2.0000E-10   0.000    
   5   8.0000E-10  5.0000E-10  1.0000E-10  1.0000E-10  1.0000E-10  1.0000E-10  1.0000E-10  1.0000E-10  1.0000E-10  1.0000E-10
   6   8.0000E-10  5.0000E-10  5.0000E-10  2.0000E-10  2.0000E-10  1.0000E-10  1.0000E-10  1.0000E-10  1.0000E-10  5.0000E-10
   7   8.0000E-10  5.0000E-10  5.0000E-10  2.0000E-10  2.0000E-10  1.0000E-10  1.0000E-10  2.0000E-10  2.0000E-10   0.000    
   8    0.000      5.0000E-10  5.0000E-10  2.0000E-10  2.0000E-10  1.0000E-10  1.0000E-10  2.0000E-10  5.0000E-10   0.000    
   9    0.000      5.0000E-10  5.0000E-10  2.0000E-10  2.0000E-10  1.0000E-10  1.0000E-10  2.0000E-10  5.0000E-10   0.000    
  10    0.000      5.0000E-10  5.0000E-10  2.0000E-10  2.0000E-10  1.0000E-10  1.0000E-10  2.0000E-10  5.0000E-10  8.0000E-10
  11    0.000      1.0000E-10  1.0000E-10  1.0000E-10  1.0000E-10  1.0000E-10  1.0000E-10  2.0000E-10  5.0000E-10   0.000    
  12   1.0000E-10  1.0000E-10  1.0000E-10  1.0000E-10  1.0000E-10  1.0000E-10  1.0000E-10  1.0000E-10  2.0000E-10   0.000    
  13   1.0000E-10  1.0000E-10  2.0000E-10  2.0000E-10  2.0000E-10  2.0000E-10  2.0000E-10  1.0000E-10  1.0000E-10   0.000    
  14    0.000      2.0000E-10  5.0000E-10  5.0000E-10  5.0000E-10  5.0000E-10  5.0000E-10  2.0000E-10  1.0000E-10   0.000    
  15    0.000       0.000      8.0000E-10  8.0000E-10  8.0000E-10  8.0000E-10   0.000       0.000       0.000       0.000    

                  ET RATE =  5.000000E-10

 USING ET EXTINCTION DEPTH FROM PREVIOUS STRESS PERIOD. CURRENT PERIOD IS:      28

 USING EXTINCTION WATER CONTENT FROM PREVIOUS STRESS PERIOD. CURRENT PERIOD IS:      28

 USING AIR ENTRY PRESSURE FROM PREVIOUS STRESS PERIOD. CURRENT PERIOD IS:      28

 USING ROOT PRESSURE HEAD FROM PREVIOUS STRESS PERIOD. CURRENT PERIOD IS:      28

 USING ROOT ACTIVITY FROM PREVIOUS STRESS PERIOD. CURRENT PERIOD IS:      28

 PROCESSING AG STRESS PERIOD DATA

 READING AG STRESS PERIOD DATA

 READING IRRIGATION SEGMENT

 READING IRRIGATION WELL

 READING SUPPLEMENTAL WELL

 NO IRRPOND OR REUSING IRRPOND DATA FROM LAST STRESS PERIOD

 END PROCESSING AG STRESS PERIOD DATA OPTIONS
 
 SOLVING FOR HEAD 
                                                   Max.-Head-Change                         Max.-Flux-Residual
  Residual-Control   Outer-Iter.   Inner-Iter.     Column Row Layer    Maximum-Head-Change  Column Row Layer    Maximum-Flux-Residual          L2-NORM 
          0                 1           2             4    7     1       0.1334077817E-01       4    7    1         0.6989063801E+00      0.1966083727E+01
          0                 2           2             4    7     1      -0.1297697294E-02       4    7    1        -0.6989086392E-01      0.1959173211E+00
          0                 3           1             4    7     1       0.8836834411E-04       4    7    1         0.4892360456E-02      0.1365154482E-01

    ------------------------------------------------
       NWT REQUIRED            3 OUTER ITERATIONS 
       AND A TOTAL OF          5 INNER ITERATIONS.
    ------------------------------------------------

 NO OUTPUT CONTROL FOR STRESS PERIOD   28   TIME STEP    1
 
 SOLVING FOR HEAD 
                                                   Max.-Head-Change                         Max.-Flux-Residual
  Residual-Control   Outer-Iter.   Inner-Iter.     Column Row Layer    Maximum-Head-Change  Column Row Layer    Maximum-Flux-Residual          L2-NORM 
          0                 1           2             4    7     1       0.1323195383E-01       4    7    1         0.6931674790E+00      0.2110554725E+01
          0                 2           2             4    7     1      -0.1287111582E-02       4    7    1        -0.6931696908E-01      0.2095745640E+00
          0                 3           1             4    7     1       0.8764749602E-04       4    7    1         0.4852187838E-02      0.1453442550E-01

    ------------------------------------------------
       NWT REQUIRED            3 OUTER ITERATIONS 
       AND A TOTAL OF          5 INNER ITERATIONS.
    ------------------------------------------------

 NO OUTPUT CONTROL FOR STRESS PERIOD   28   TIME STEP    2
 
 SOLVING FOR HEAD 
                                                   Max.-Head-Change                         Max.-Flux-Residual
  Residual-Control   Outer-Iter.   Inner-Iter.     Column Row Layer    Maximum-Head-Change  Column Row Layer    Maximum-Flux-Residual          L2-NORM 
          0                 1           2             4    7     1       0.1312466865E-01       4    7    1         0.6875104151E+00      0.2061551353E+01
          0                 2           2             4    7     1      -0.1276675592E-02       4    7    1        -0.6875125808E-01      0.2048776670E+00
          0                 3           1             4    7     1       0.8693684452E-04       4    7    1         0.4812588098E-02      0.1422499578E-01

    ------------------------------------------------
       NWT REQUIRED            3 OUTER ITERATIONS 
       AND A TOTAL OF          5 INNER ITERATIONS.
    ------------------------------------------------

 NO OUTPUT CONTROL FOR STRESS PERIOD   28   TIME STEP    3
 
 SOLVING FOR HEAD 
                                                   Max.-Head-Change                         Max.-Flux-Residual
  Residual-Control   Outer-Iter.   Inner-Iter.     Column Row Layer    Maximum-Head-Change  Column Row Layer    Maximum-Flux-Residual          L2-NORM 
          0                 1           2             4    7     1       0.1301901667E-01       4    7    1         0.6819404899E+00      0.2018090343E+01
          0                 2           2             4    7     1      -0.1266398469E-02       4    7    1        -0.6819426110E-01      0.2007083472E+00
          0                 3           1             4    7     1       0.8623701148E-04       4    7    1         0.4773598335E-02      0.1394914474E-01

    ------------------------------------------------
       NWT REQUIRED            3 OUTER ITERATIONS 
       AND A TOTAL OF          5 INNER ITERATIONS.
    ------------------------------------------------

 NO OUTPUT CONTROL FOR STRESS PERIOD   28   TIME STEP    4
 
 SOLVING FOR HEAD 
                                                   Max.-Head-Change                         Max.-Flux-Residual
  Residual-Control   Outer-Iter.   Inner-Iter.     Column Row Layer    Maximum-Head-Change  Column Row Layer    Maximum-Flux-Residual          L2-NORM 
          0                 1           2             4    7     1       0.1291482171E-01       4    7    1         0.6764479070E+00      0.1979409578E+01
          0                 2           2             4    7     1      -0.1256263076E-02       4    7    1        -0.6764499846E-01      0.1969933192E+00
          0                 3           1             4    7     1       0.8554682950E-04       4    7    1         0.4735149974E-02      0.1370310065E-01

    ------------------------------------------------
       NWT REQUIRED            3 OUTER ITERATIONS 
       AND A TOTAL OF          5 INNER ITERATIONS.
    ------------------------------------------------

 NO OUTPUT CONTROL FOR STRESS PERIOD   28   TIME STEP    5
 
 SOLVING FOR HEAD 
                                                   Max.-Head-Change                         Max.-Flux-Residual
  Residual-Control   Outer-Iter.   Inner-Iter.     Column Row Layer    Maximum-Head-Change  Column Row Layer    Maximum-Flux-Residual          L2-NORM 
          0                 1           2             4    7     1       0.1281204184E-01       4    7    1         0.6710308681E+00      0.1944837289E+01
          0                 2           2             4    7     1      -0.1246265335E-02       4    7    1        -0.6710329036E-01      0.1936687609E+00
          0                 3           1             4    7     1       0.8486602084E-04       4    7    1         0.4697230411E-02      0.1348269363E-01

    ------------------------------------------------
       NWT REQUIRED            3 OUTER ITERATIONS 
       AND A TOTAL OF          5 INNER ITERATIONS.
    ------------------------------------------------

 NO OUTPUT CONTROL FOR STRESS PERIOD   28   TIME STEP    6
 
 SOLVING FOR HEAD 
                                                   Max.-Head-Change                         Max.-Flux-Residual
  Residual-Control   Outer-Iter.   Inner-Iter.     Column Row Layer    Maximum-Head-Change  Column Row Layer    Maximum-Flux-Residual          L2-NORM 
          0                 1           2             4    7     1       0.1271077991E-01       4    7    1         0.6656945354E+00      0.1913812537E+01
          0                 2           2             4    7     1      -0.1236415249E-02       4    7    1        -0.6656965298E-01      0.1906796705E+00
          0                 3           1             4    7     1       0.8419526761E-04       4    7    1         0.4659875831E-02      0.1328346888E-01

    ------------------------------------------------
       NWT REQUIRED            3 OUTER ITERATIONS 
       AND A TOTAL OF          5 INNER ITERATIONS.
    ------------------------------------------------

 NO OUTPUT CONTROL FOR STRESS PERIOD   28   TIME STEP    7
 
 SOLVING FOR HEAD 
                                                   Max.-Head-Change                         Max.-Flux-Residual
  Residual-Control   Outer-Iter.   Inner-Iter.     Column Row Layer    Maximum-Head-Change  Column Row Layer    Maximum-Flux-Residual          L2-NORM 
          0                 1           2             4    7     1       0.1261099804E-01       4    7    1         0.6604369049E+00      0.1885831952E+01
          0                 2           2             4    7     1      -0.1226709135E-02       4    7    1        -0.6604388595E-01      0.1879810708E+00
          0                 3           1             4    7     1       0.8353431762E-04       4    7    1         0.4623072157E-02      0.1310387757E-01

    ------------------------------------------------
       NWT REQUIRED            3 OUTER ITERATIONS 
       AND A TOTAL OF          5 INNER ITERATIONS.
    ------------------------------------------------

 NO OUTPUT CONTROL FOR STRESS PERIOD   28   TIME STEP    8
 
 SOLVING FOR HEAD 
                                                   Max.-Head-Change                         Max.-Flux-Residual
  Residual-Control   Outer-Iter.   Inner-Iter.     Column Row Layer    Maximum-Head-Change  Column Row Layer    Maximum-Flux-Residual          L2-NORM 
          0                 1           2             4    7     1       0.1251238707E-01       4    7    1         0.6552413399E+00      0.1860458329E+01
          0                 2           2             4    7     1      -0.1217116919E-02       4    7    1        -0.6552432556E-01      0.1855288040E+00
          0                 3           1             4    7     1       0.8288112412E-04       4    7    1         0.4586702956E-02      0.1293960697E-01

    ------------------------------------------------
       NWT REQUIRED            3 OUTER ITERATIONS 
       AND A TOTAL OF          5 INNER ITERATIONS.
    ------------------------------------------------

 NO OUTPUT CONTROL FOR STRESS PERIOD   28   TIME STEP    9
 
 SOLVING FOR HEAD 
                                                   Max.-Head-Change                         Max.-Flux-Residual
  Residual-Control   Outer-Iter.   Inner-Iter.     Column Row Layer    Maximum-Head-Change  Column Row Layer    Maximum-Flux-Residual          L2-NORM 
          0                 1           2             4    7     1       0.1241532638E-01       4    7    1         0.6501284939E+00      0.1837337682E+01
          0                 2           2             4    7     1      -0.1207675505E-02       4    7    1        -0.6501303719E-01      0.1832890288E+00
          0                 3           1             4    7     1       0.8223819929E-04       4    7    1         0.4550912796E-02      0.1278949812E-01

    ------------------------------------------------
       NWT REQUIRED            3 OUTER ITERATIONS 
       AND A TOTAL OF          5 INNER ITERATIONS.
    ------------------------------------------------

 NO OUTPUT CONTROL FOR STRESS PERIOD   28   TIME STEP   10
 
 SOLVING FOR HEAD 
                                                   Max.-Head-Change                         Max.-Flux-Residual
  Residual-Control   Outer-Iter.   Inner-Iter.     Column Row Layer    Maximum-Head-Change  Column Row Layer    Maximum-Flux-Residual          L2-NORM 
          0                 1           2             4    7     1       0.1231950363E-01       4    7    1         0.6450813537E+00      0.1816149704E+01
          0                 2           2             4    7     1      -0.1198354510E-02       4    7    1        -0.6450831949E-01      0.1812329267E+00
          0                 3           1             4    7     1       0.8160347459E-04       4    7    1         0.4515582573E-02      0.1265119899E-01

    ------------------------------------------------
       NWT REQUIRED            3 OUTER ITERATIONS 
       AND A TOTAL OF          5 INNER ITERATIONS.
    ------------------------------------------------

 NO OUTPUT CONTROL FOR STRESS PERIOD   28   TIME STEP   11
 
 SOLVING FOR HEAD 
                                                   Max.-Head-Change                         Max.-Flux-Residual
  Residual-Control   Outer-Iter.   Inner-Iter.     Column Row Layer    Maximum-Head-Change  Column Row Layer    Maximum-Flux-Residual          L2-NORM 
          0                 1           2             4    7     1       0.1222489302E-01       4    7    1         0.6400983984E+00      0.1796630454E+01
          0                 2           2             4    7     1      -0.1189151424E-02       4    7    1        -0.6401002038E-01      0.1793348368E+00
          0                 3           1             4    7     1       0.8097677950E-04       4    7    1         0.4480701659E-02      0.1252342090E-01

    ------------------------------------------------
       NWT REQUIRED            3 OUTER ITERATIONS 
       AND A TOTAL OF          5 INNER ITERATIONS.
    ------------------------------------------------

 NO OUTPUT CONTROL FOR STRESS PERIOD   28   TIME STEP   12
 
 SOLVING FOR HEAD 
                                                   Max.-Head-Change                         Max.-Flux-Residual
  Residual-Control   Outer-Iter.   Inner-Iter.     Column Row Layer    Maximum-Head-Change  Column Row Layer    Maximum-Flux-Residual          L2-NORM 
          0                 1           2             4    7     1       0.1213173418E-01       4    7    1         0.6351929649E+00      0.1778549852E+01
          0                 2           2             4    7     1      -0.1180089557E-02       4    7    1        -0.6351947356E-01      0.1775728176E+00
          0                 3           1             4    7     1       0.8035970022E-04       4    7    1         0.4446363394E-02      0.1240410140E-01

    ------------------------------------------------
       NWT REQUIRED            3 OUTER ITERATIONS 
       AND A TOTAL OF          5 INNER ITERATIONS.
    ------------------------------------------------

 NO OUTPUT CONTROL FOR STRESS PERIOD   28   TIME STEP   13
 
 SOLVING FOR HEAD 
                                                   Max.-Head-Change                         Max.-Flux-Residual
  Residual-Control   Outer-Iter.   Inner-Iter.     Column Row Layer    Maximum-Head-Change  Column Row Layer    Maximum-Flux-Residual          L2-NORM 
          0                 1           2             4    7     1       0.1203958738E-01       4    7    1         0.6303407905E+00      0.1761709820E+01
          0                 2           2             4    7     1      -0.1171126136E-02       4    7    1        -0.6303425271E-01      0.1759283809E+00
          0                 3           1             4    7     1       0.7974932517E-04       4    7    1         0.4412397955E-02      0.1229274246E-01

    ------------------------------------------------
       NWT REQUIRED            3 OUTER ITERATIONS 
       AND A TOTAL OF          5 INNER ITERATIONS.
    ------------------------------------------------

 NO OUTPUT CONTROL FOR STRESS PERIOD   28   TIME STEP   14
 
 SOLVING FOR HEAD 
                                                   Max.-Head-Change                         Max.-Flux-Residual
  Residual-Control   Outer-Iter.   Inner-Iter.     Column Row Layer    Maximum-Head-Change  Column Row Layer    Maximum-Flux-Residual          L2-NORM 
          0                 1           2             4    7     1       0.1194883871E-01       4    7    1         0.6255631022E+00      0.1745949866E+01
          0                 2           2             4    7     1      -0.1162298716E-02       4    7    1        -0.6255648057E-01      0.1743864610E+00
          0                 3           1             4    7     1       0.7914821104E-04       4    7    1         0.4378953919E-02      0.1218792041E-01

    ------------------------------------------------
       NWT REQUIRED            3 OUTER ITERATIONS 
       AND A TOTAL OF          5 INNER ITERATIONS.
    ------------------------------------------------

 NO OUTPUT CONTROL FOR STRESS PERIOD   28   TIME STEP   15
 
 SOLVING FOR HEAD 
                                                   Max.-Head-Change                         Max.-Flux-Residual
  Residual-Control   Outer-Iter.   Inner-Iter.     Column Row Layer    Maximum-Head-Change  Column Row Layer    Maximum-Flux-Residual          L2-NORM 
          0                 1           2             4    7     1       0.1185917863E-01       4    7    1         0.6208432286E+00      0.1731112848E+01
          0                 2           2             4    7     1      -0.1153577188E-02       4    7    1        -0.6208449000E-01      0.1729317750E+00
          0                 3           1             4    7     1       0.7855430786E-04       4    7    1         0.4345914593E-02      0.1208869505E-01

    ------------------------------------------------
       NWT REQUIRED            3 OUTER ITERATIONS 
       AND A TOTAL OF          5 INNER ITERATIONS.
    ------------------------------------------------

 NO OUTPUT CONTROL FOR STRESS PERIOD   28   TIME STEP   16
 
 SOLVING FOR HEAD 
                                                   Max.-Head-Change                         Max.-Flux-Residual
  Residual-Control   Outer-Iter.   Inner-Iter.     Column Row Layer    Maximum-Head-Change  Column Row Layer    Maximum-Flux-Residual          L2-NORM 
          0                 1           2             4    7     1       0.1177058746E-01       4    7    1         0.6161797960E+00      0.1717097504E+01
          0                 2           2             4    7     1      -0.1144959636E-02       4    7    1        -0.6161814360E-01      0.1715569268E+00
          0                 3           1             4    7     1       0.7796748465E-04       4    7    1         0.4313270352E-02      0.1199465053E-01

    ------------------------------------------------
       NWT REQUIRED            3 OUTER ITERATIONS 
       AND A TOTAL OF          5 INNER ITERATIONS.
    ------------------------------------------------

 NO OUTPUT CONTROL FOR STRESS PERIOD   28   TIME STEP   17
 
 SOLVING FOR HEAD 
                                                   Max.-Head-Change                         Max.-Flux-Residual
  Residual-Control   Outer-Iter.   Inner-Iter.     Column Row Layer    Maximum-Head-Change  Column Row Layer    Maximum-Flux-Residual          L2-NORM 
          0                 1           2             4    7     1       0.1168331192E-01       4    7    1         0.6115864614E+00      0.1703791335E+01
          0                 2           2             4    7     1      -0.1136470060E-02       4    7    1        -0.6115880708E-01      0.1702463251E+00
          0                 3           1             4    7     1       0.7738937646E-04       4    7    1         0.4281116813E-02      0.1190523477E-01

    ------------------------------------------------
       NWT REQUIRED            3 OUTER ITERATIONS 
       AND A TOTAL OF          5 INNER ITERATIONS.
    ------------------------------------------------

 NO OUTPUT CONTROL FOR STRESS PERIOD   28   TIME STEP   18
 
 SOLVING FOR HEAD 
                                                   Max.-Head-Change                         Max.-Flux-Residual
  Residual-Control   Outer-Iter.   Inner-Iter.     Column Row Layer    Maximum-Head-Change  Column Row Layer    Maximum-Flux-Residual          L2-NORM 
          0                 1           2             4    7     1       0.1159704826E-01       4    7    1         0.6070466628E+00      0.1691107226E+01
          0                 2           2             4    7     1      -0.1128078913E-02       4    7    1        -0.6070482422E-01      0.1689947175E+00
          0                 3           1             4    7     1       0.7681797109E-04       4    7    1         0.4249338025E-02      0.1181891407E-01

    ------------------------------------------------
       NWT REQUIRED            3 OUTER ITERATIONS 
       AND A TOTAL OF          5 INNER ITERATIONS.
    ------------------------------------------------

 NO OUTPUT CONTROL FOR STRESS PERIOD   28   TIME STEP   19
 
 SOLVING FOR HEAD 
                                                   Max.-Head-Change                         Max.-Flux-Residual
  Residual-Control   Outer-Iter.   Inner-Iter.     Column Row Layer    Maximum-Head-Change  Column Row Layer    Maximum-Flux-Residual          L2-NORM 
          0                 1           2             4    7     1       0.1151191257E-01       4    7    1         0.6025666672E+00      0.1678975953E+01
          0                 2           2             4    7     1      -0.1119797490E-02       4    7    1        -0.6025682176E-01      0.1677986823E+00
          0                 3           1             4    7     1       0.7625403750E-04       4    7    1         0.4217977887E-02      0.1173710875E-01

    ------------------------------------------------
       NWT REQUIRED            3 OUTER ITERATIONS 
       AND A TOTAL OF          5 INNER ITERATIONS.
    ------------------------------------------------

 NO OUTPUT CONTROL FOR STRESS PERIOD   28   TIME STEP   20
 
 SOLVING FOR HEAD 
                                                   Max.-Head-Change                         Max.-Flux-Residual
  Residual-Control   Outer-Iter.   Inner-Iter.     Column Row Layer    Maximum-Head-Change  Column Row Layer    Maximum-Flux-Residual          L2-NORM 
          0                 1           2             4    7     1       0.1142774436E-01       4    7    1         0.5981378161E+00      0.1667325050E+01
          0                 2           2             4    7     1      -0.1111610175E-02       4    7    1        -0.5981393381E-01      0.1666472757E+00
          0                 3           1             4    7     1       0.7569651195E-04       4    7    1         0.4186975731E-02      0.1165761501E-01

    ------------------------------------------------
       NWT REQUIRED            3 OUTER ITERATIONS 
       AND A TOTAL OF          5 INNER ITERATIONS.
    ------------------------------------------------

 NO OUTPUT CONTROL FOR STRESS PERIOD   28   TIME STEP   21
 
 SOLVING FOR HEAD 
                                                   Max.-Head-Change                         Max.-Flux-Residual
  Residual-Control   Outer-Iter.   Inner-Iter.     Column Row Layer    Maximum-Head-Change  Column Row Layer    Maximum-Flux-Residual          L2-NORM 
          0                 1           2             4    7     1       0.1134465746E-01       4    7    1         0.5937664658E+00      0.1656102331E+01
          0                 2           2             4    7     1      -0.1103528045E-02       4    7    1        -0.5937679600E-01      0.1655367390E+00
          0                 3           1             4    7     1       0.7514614968E-04       4    7    1         0.4156376119E-02      0.1158100686E-01

    ------------------------------------------------
       NWT REQUIRED            3 OUTER ITERATIONS 
       AND A TOTAL OF          5 INNER ITERATIONS.
    ------------------------------------------------

 NO OUTPUT CONTROL FOR STRESS PERIOD   28   TIME STEP   22
 
 SOLVING FOR HEAD 
                                                   Max.-Head-Change                         Max.-Flux-Residual
  Residual-Control   Outer-Iter.   Inner-Iter.     Column Row Layer    Maximum-Head-Change  Column Row Layer    Maximum-Flux-Residual          L2-NORM 
          0                 1           2             4    7     1       0.1126262864E-01       4    7    1         0.5894511801E+00      0.1645270048E+01
          0                 2           2             4    7     1      -0.1095548837E-02       4    7    1        -0.5894526472E-01      0.1644634114E+00
          0                 3           1             4    7     1       0.7460279518E-04       4    7    1         0.4126168935E-02      0.1150660883E-01

    ------------------------------------------------
       NWT REQUIRED            3 OUTER ITERATIONS 
       AND A TOTAL OF          5 INNER ITERATIONS.
    ------------------------------------------------

 NO OUTPUT CONTROL FOR STRESS PERIOD   28   TIME STEP   23
 
 SOLVING FOR HEAD 
                                                   Max.-Head-Change                         Max.-Flux-Residual
  Residual-Control   Outer-Iter.   Inner-Iter.     Column Row Layer    Maximum-Head-Change  Column Row Layer    Maximum-Flux-Residual          L2-NORM 
          0                 1           2             4    7     1       0.1118163318E-01       4    7    1         0.5851907538E+00      0.1634774155E+01
          0                 2           2             4    7     1      -0.1087670147E-02       4    7    1        -0.5851921944E-01      0.1634223498E+00
          0                 3           1             4    7     1       0.7406628610E-04       4    7    1         0.4096345763E-02      0.1143453307E-01

    ------------------------------------------------
       NWT REQUIRED            3 OUTER ITERATIONS 
       AND A TOTAL OF          5 INNER ITERATIONS.
    ------------------------------------------------

 NO OUTPUT CONTROL FOR STRESS PERIOD   28   TIME STEP   24
 
 SOLVING FOR HEAD 
                                                   Max.-Head-Change                         Max.-Flux-Residual
  Residual-Control   Outer-Iter.   Inner-Iter.     Column Row Layer    Maximum-Head-Change  Column Row Layer    Maximum-Flux-Residual          L2-NORM 
          0                 1           2             4    7     1       0.1110165051E-01       4    7    1         0.5809839052E+00      0.1624596372E+01
          0                 2           2             4    7     1      -0.1079889977E-02       4    7    1        -0.5809853203E-01      0.1624121263E+00
          0                 3           1             4    7     1       0.7353648588E-04       4    7    1         0.4066897678E-02      0.1136447034E-01

    ------------------------------------------------
       NWT REQUIRED            3 OUTER ITERATIONS 
       AND A TOTAL OF          5 INNER ITERATIONS.
    ------------------------------------------------

 NO OUTPUT CONTROL FOR STRESS PERIOD   28   TIME STEP   25
 
 SOLVING FOR HEAD 
                                                   Max.-Head-Change                         Max.-Flux-Residual
  Residual-Control   Outer-Iter.   Inner-Iter.     Column Row Layer    Maximum-Head-Change  Column Row Layer    Maximum-Flux-Residual          L2-NORM 
          0                 1           2             4    7     1       0.1102252761E-01       4    7    1         0.5768222287E+00      0.1614694103E+01
          0                 2           2             4    7     1      -0.1072193440E-02       4    7    1        -0.5768236186E-01      0.1614281545E+00
          0                 3           1             4    7     1       0.7301238038E-04       4    7    1         0.4037765757E-02      0.1129605989E-01

    ------------------------------------------------
       NWT REQUIRED            3 OUTER ITERATIONS 
       AND A TOTAL OF          5 INNER ITERATIONS.
    ------------------------------------------------

 NO OUTPUT CONTROL FOR STRESS PERIOD   28   TIME STEP   26
 
 SOLVING FOR HEAD 
                                                   Max.-Head-Change                         Max.-Flux-Residual
  Residual-Control   Outer-Iter.   Inner-Iter.     Column Row Layer    Maximum-Head-Change  Column Row Layer    Maximum-Flux-Residual          L2-NORM 
          0                 1           2             4    7     1       0.1094437713E-01       4    7    1         0.5727124698E+00      0.1605036857E+01
          0                 2           2             4    7     1      -0.1064591492E-02       4    7    1        -0.5727138351E-01      0.1604678817E+00
          0                 3           1             4    7     1       0.7249471641E-04       4    7    1         0.4008997288E-02      0.1122938612E-01

    ------------------------------------------------
       NWT REQUIRED            3 OUTER ITERATIONS 
       AND A TOTAL OF          5 INNER ITERATIONS.
    ------------------------------------------------

 NO OUTPUT CONTROL FOR STRESS PERIOD   28   TIME STEP   27
 
 SOLVING FOR HEAD 
                                                   Max.-Head-Change                         Max.-Flux-Residual
  Residual-Control   Outer-Iter.   Inner-Iter.     Column Row Layer    Maximum-Head-Change  Column Row Layer    Maximum-Flux-Residual          L2-NORM 
          0                 1           2             4    7     1       0.1086718343E-01       4    7    1         0.5686531286E+00      0.1595620478E+01
          0                 2           2             4    7     1      -0.1057082614E-02       4    7    1        -0.5686544698E-01      0.1595310626E+00
          0                 3           1             4    7     1       0.7198338984E-04       4    7    1         0.3980581738E-02      0.1116426995E-01

    ------------------------------------------------
       NWT REQUIRED            3 OUTER ITERATIONS 
       AND A TOTAL OF          5 INNER ITERATIONS.
    ------------------------------------------------

 NO OUTPUT CONTROL FOR STRESS PERIOD   28   TIME STEP   28
 
 SOLVING FOR HEAD 
                                                   Max.-Head-Change                         Max.-Flux-Residual
  Residual-Control   Outer-Iter.   Inner-Iter.     Column Row Layer    Maximum-Head-Change  Column Row Layer    Maximum-Flux-Residual          L2-NORM 
          0                 1           2             4    7     1       0.1079092472E-01       4    7    1         0.5646433951E+00      0.1586414919E+01
          0                 2           2             4    7     1      -0.1049664687E-02       4    7    1        -0.5646447129E-01      0.1586145719E+00
          0                 3           1             4    7     1       0.7147825678E-04       4    7    1         0.3952513455E-02      0.1110051760E-01

    ------------------------------------------------
       NWT REQUIRED            3 OUTER ITERATIONS 
       AND A TOTAL OF          5 INNER ITERATIONS.
    ------------------------------------------------

 NO OUTPUT CONTROL FOR STRESS PERIOD   28   TIME STEP   29
 
 SOLVING FOR HEAD 
                                                   Max.-Head-Change                         Max.-Flux-Residual
  Residual-Control   Outer-Iter.   Inner-Iter.     Column Row Layer    Maximum-Head-Change  Column Row Layer    Maximum-Flux-Residual          L2-NORM 
          0                 1           2             4    7     1       0.1071557899E-01       4    7    1         0.5606821397E+00      0.1577405317E+01
          0                 2           2             4    7     1      -0.1042335567E-02       4    7    1        -0.5606834347E-01      0.1577172477E+00
          0                 3           1             4    7     1       0.7097917130E-04       4    7    1         0.3924784512E-02      0.1103805865E-01

    ------------------------------------------------
       NWT REQUIRED            3 OUTER ITERATIONS 
       AND A TOTAL OF          5 INNER ITERATIONS.
    ------------------------------------------------

 NO OUTPUT CONTROL FOR STRESS PERIOD   28   TIME STEP   30



 STREAM LISTING     PERIOD     28   STEP       30

 LAYER ROW COL. STREAM  RCH.  FLOW INTO     FLOW TO   FLOW OUT OF   OVRLND.     DIRECT     STREAM       STREAM     STREAM     STREAM   STREAMBED  STREAMBED
                SEG.NO.  NO.  STRM. RCH.    AQUIFER    STRM. RCH.    RUNOFF     PRECIP       ET          HEAD       DEPTH      WIDTH   CONDCTNC.   GRADIENT

   1    1    1     1     1    5.7748E+01  3.6407E-01   5.7384E+01  0.000E+00  0.000E+00  0.000E+00  1.09455E+03  1.498E+00  1.799E+01  8.095E-02  1.499E+00
   1    2    2     1     2    5.7384E+01  5.6377E-01   5.6820E+01  0.000E+00  0.000E+00  0.000E+00  1.08955E+03  1.492E+00  1.793E+01  1.255E-01  1.497E+00
   1    3    3     1     3    5.6820E+01  4.8075E-01   5.6340E+01  0.000E+00  0.000E+00  0.000E+00  1.08390E+03  1.485E+00  1.786E+01  1.072E-01  1.495E+00
   1    3    4     1     4    5.6340E+01  4.4266E-01   5.5897E+01  0.000E+00  0.000E+00  0.000E+00  1.07889E+03  1.480E+00  1.781E+01  9.882E-02  1.493E+00
   1    4    5     2     1    5.3897E+01  3.8302E-01   5.3514E+01  0.000E+00  0.000E+00  0.000E+00  1.07384E+03  1.911E+00  1.200E+01  7.800E-02  1.637E+00
   1    5    6     2     2    5.3514E+01  2.9420E-01   5.3220E+01  0.000E+00  0.000E+00  0.000E+00  1.06841E+03  1.903E+00  1.200E+01  6.000E-02  1.634E+00
   1    6    6     2     3    5.3220E+01  2.9382E-01   5.2926E+01  0.000E+00  0.000E+00  0.000E+00  1.06369E+03  1.897E+00  1.200E+01  6.000E-02  1.632E+00
   1    7    6     2     4    5.2926E+01  2.9344E-01   5.2633E+01  0.000E+00  0.000E+00  0.000E+00  1.05897E+03  1.891E+00  1.200E+01  6.000E-02  1.630E+00
   1    8    6     2     5    5.2633E+01  2.9306E-01   5.2339E+01  0.000E+00  0.000E+00  0.000E+00  1.05424E+03  1.884E+00  1.200E+01  6.000E-02  1.628E+00
   1    3    5     3     1    2.0000E+00  2.8252E-01   1.7175E+00  0.000E+00  0.000E+00  0.000E+00  1.07555E+03  1.909E+00  9.636E+00  7.227E-02  1.955E+00
   1    3    6     3     2    1.7175E+00  2.4905E-01   1.4684E+00  0.000E+00  0.000E+00  0.000E+00  1.07264E+03  1.727E+00  8.909E+00  6.682E-02  1.864E+00
   1    3    7     3     3    1.4684E+00  1.9718E-01   1.2712E+00  0.000E+00  0.000E+00  0.000E+00  1.06987E+03  1.555E+00  8.218E+00  5.547E-02  1.777E+00
   1    4    8     3     4    1.2712E+00  2.2567E-01   1.0456E+00  0.000E+00  0.000E+00  0.000E+00  1.06682E+03  1.364E+00  7.455E+00  6.709E-02  1.682E+00
   1    5    8     3     5    1.0456E+00  1.5790E-01   8.8768E-01  0.000E+00  0.000E+00  0.000E+00  1.06362E+03  1.164E+00  6.655E+00  4.991E-02  1.582E+00
   1    6    8     3     6    8.8768E-01  5.5980E-02   8.3170E-01  0.000E+00  0.000E+00  0.000E+00  1.06158E+03  1.036E+00  6.145E+00  1.844E-02  1.518E+00
   1    5   10     4     1    1.0000E+01  9.0919E-02   9.9091E+00  0.000E+00  0.000E+00  0.000E+00  1.07836E+03  6.368E-01  1.000E+01  2.500E-02  1.212E+00
   1    5    9     4     2    9.9091E+00  1.8158E-01   9.7275E+00  0.000E+00  0.000E+00  0.000E+00  1.07154E+03  6.315E-01  1.000E+01  5.000E-02  1.211E+00
   1    6    8     4     3    9.7275E+00  1.2689E-01   9.6006E+00  0.000E+00  0.000E+00  0.000E+00  1.06381E+03  6.256E-01  1.000E+01  3.500E-02  1.209E+00
   1    6    8     5     1    1.0432E+01  2.2686E-01   1.0205E+01  0.000E+00  0.000E+00  0.000E+00  1.05868E+03  6.790E-01  1.542E+01  6.166E-02  1.226E+00
   1    7    7     5     2    1.0205E+01  2.7894E-01   9.9265E+00  0.000E+00  0.000E+00  0.000E+00  1.05417E+03  6.732E-01  1.519E+01  7.594E-02  1.224E+00
   1    8    7     5     3    9.9265E+00  1.9221E-01   9.7343E+00  0.000E+00  0.000E+00  0.000E+00  1.04992E+03  6.676E-01  1.497E+01  5.241E-02  1.223E+00
   1    8    6     5     4    9.7343E+00  1.3577E-01   9.5985E+00  0.000E+00  0.000E+00  0.000E+00  1.04691E+03  6.637E-01  1.482E+01  3.706E-02  1.221E+00
   1    9    6     6     1    6.1938E+01  3.0608E-01   6.1632E+01  0.000E+00  0.000E+00  0.000E+00  1.04483E+03  2.101E+00  1.200E+01  6.000E-02  1.700E+00
   1   10    7     6     2    6.1632E+01  3.0571E-01   6.1326E+01  0.000E+00  0.000E+00  0.000E+00  1.04028E+03  2.095E+00  1.200E+01  6.000E-02  1.698E+00
   1   11    7     6     3    6.1326E+01  3.0533E-01   6.1021E+01  0.000E+00  0.000E+00  0.000E+00  1.03573E+03  2.089E+00  1.200E+01  6.000E-02  1.696E+00
   1   12    7     6     4    6.1021E+01  3.0496E-01   6.0716E+01  0.000E+00  0.000E+00  0.000E+00  1.03117E+03  2.083E+00  1.200E+01  6.000E-02  1.694E+00
   1   13    7     6     5    6.0716E+01  2.7276E-02   6.0689E+01  0.000E+00  0.000E+00  0.000E+00  1.02799E+03  2.079E+00  1.200E+01  2.400E-02  3.788E-01
   1   14    9     7     1    1.5000E+02  1.3478E+00   1.4865E+02  0.000E+00  0.000E+00  0.000E+00  1.03987E+03  2.288E+00  5.529E+01  5.593E-01  8.033E-01
   1   13    8     7     2    1.4865E+02  1.8955E+00   1.4676E+02  0.000E+00  0.000E+00  0.000E+00  1.03478E+03  2.279E+00  5.526E+01  6.148E-01  1.028E+00
   1   13    7     7     3    1.4676E+02  1.5844E+00   1.4517E+02  0.000E+00  0.000E+00  0.000E+00  1.02969E+03  2.270E+00  5.521E+01  5.584E-01  9.458E-01
   1   13    6     8     1    2.0586E+02  1.1971E+00   2.0466E+02  0.000E+00  0.000E+00  0.000E+00  1.02504E+03  3.168E+00  4.594E+01  4.682E-01  8.523E-01
   1   13    5     8     2    2.0466E+02  3.8770E-01   2.0428E+02  0.000E+00  0.000E+00  0.000E+00  1.01879E+03  3.164E+00  4.588E+01  4.675E-01  2.764E-01
   1   13    4     8     3    2.0428E+02 -1.8215E+00   2.0610E+02  0.000E+00  0.000E+00  0.000E+00  1.01254E+03  3.168E+00  4.594E+01  4.681E+00 -1.297E-01
   1   13    3     8     4    2.0610E+02 -3.3393E+00   2.0944E+02  0.000E+00  0.000E+00  0.000E+00  1.00631E+03  3.183E+00  4.615E+01  4.703E+00 -2.367E-01
   1   13    2     8     5    2.0944E+02 -2.4358E+00   2.1187E+02  0.000E+00  0.000E+00  0.000E+00  1.00007E+03  3.199E+00  4.639E+01  4.727E+00 -1.718E-01
   1   13    1     8     6    2.1187E+02 -1.8807E+00   2.1375E+02  0.000E+00  0.000E+00  0.000E+00  9.95087E+02  3.212E+00  4.657E+01  2.847E+00 -2.202E-01
   1    8    6     9     1    0.0000E+00  0.0000E+00   0.0000E+00  0.000E+00  0.000E+00  0.000E+00  1.07875E+03  0.000E+00  4.000E+00  0.000E+00  1.000E+00
   1    8    5     9     2    0.0000E+00  0.0000E+00   0.0000E+00  0.000E+00  0.000E+00  0.000E+00  1.07825E+03  0.000E+00  4.000E+00  0.000E+00  1.000E+00





UNSATURATED ZONE PACKAGE VOLUMETRIC BUDGET FOR  TIME STEP    30 STRESS PERIOD   28
  ------------------------------------------------------------------------------



     CUMULATIVE VOLUMES      L**3       RATES FOR THIS TIME STEP      L**3/T
     ------------------                 ------------------------

           IN:                                      IN:
           ---                                      ---
        INFILTRATION =   868032912.5689          INFILTRATION =           0.8475

          OUT:                                     OUT:
          ----                                     ----
              UZF ET =   866005320.3041                UZF ET =           0.7500
        UZF RECHARGE =       73224.0000          UZF RECHARGE =       0.0000E+00

            IN - OUT =     1954368.2648              IN - OUT =       9.7500E-02

          STORAGE:                                 STORAGE:
          --------                                 --------
      STORAGE CHANGE =     1954368.3132        STORAGE CHANGE =       9.7500E-02

 PERCENT DISCREPANCY IS DIFFERENCE BETWEEN IN-OUT MINUS CHANGE IN STORAGE
 DIVIDED BY THE AVERAGE OF IN AND OUT TIMES 100

 PERCENT DISCREPANCY =           0.00     PERCENT DISCREPANCY =           0.00






1
  VOLUMETRIC BUDGET FOR AGRICULTURAL FIELDS AT  END OF TIME STEP   30, STRESS PERIOD  28
  ------------------------------------------------------------------------------

     CUMULATIVE VOLUMES      L**3       RATES FOR THIS TIME STEP      L**3/T
     ------------------                 ------------------------

           IN:                                      IN:
           ---                                      ---
               AG WELLS  =   807776960.0000                 AG WELLS  =           0.0000
      DIVERSION SEGMENTS =           0.0000        DIVERSION SEGMENTS =           0.0000
       IRRIGATION PONDS  =           0.0000         IRRIGATION PONDS  =           0.0000
           GW IRRIGATION =           0.0000             GW IRRIGATION =           0.0000
           SW IRRIGATION =           0.0000             SW IRRIGATION =           0.0000
        SYSTEM LOSSES GW =           0.0000          SYSTEM LOSSES GW =           0.0000
        SYSTEM LOSSES SW =           0.0000          SYSTEM LOSSES SW =           0.0000

                TOTAL IN =   807776960.0000                  TOTAL IN =           0.0000

          OUT:                                     OUT:
          ----                                     ----
               AG WELLS  =           0.0000                 AG WELLS  =           0.0000
      DIVERSION SEGMENTS =           0.0000        DIVERSION SEGMENTS =           0.0000
       IRRIGATION PONDS  =           0.0000         IRRIGATION PONDS  =           0.0000
           GW IRRIGATION =   807776960.0000             GW IRRIGATION =           0.0000
           SW IRRIGATION =           0.0000             SW IRRIGATION =           0.0000
        SYSTEM LOSSES GW =           0.0000          SYSTEM LOSSES GW =           0.0000
        SYSTEM LOSSES SW =           0.0000          SYSTEM LOSSES SW =           0.0000

               TOTAL OUT =   807776960.0000                 TOTAL OUT =           0.0000

                IN - OUT =           0.0000                  IN - OUT =           0.0000

     PERCENT DISCREPANCY =           0.00         PERCENT DISCREPANCY =           0.00



1
  VOLUMETRIC BUDGET FOR ENTIRE MODEL AT END OF TIME STEP   30, STRESS PERIOD  28
  ------------------------------------------------------------------------------

     CUMULATIVE VOLUMES      L**3       RATES FOR THIS TIME STEP      L**3/T
     ------------------                 ------------------------

           IN:                                      IN:
           ---                                      ---
             STORAGE     =  1139988864.0000               STORAGE     =           3.3244
       CONSTANT HEAD     =           0.0000         CONSTANT HEAD     =           0.0000
     HEAD DEP BOUNDS     =    20324224.0000       HEAD DEP BOUNDS     =           0.2866
      STREAM LEAKAGE     =   861653824.0000        STREAM LEAKAGE     =          13.4721
        UZF RECHARGE     =       73223.9531          UZF RECHARGE     =           0.0000
               GW ET     =           0.0000                 GW ET     =           0.0000
     SURFACE LEAKAGE     =           0.0000       SURFACE LEAKAGE     =           0.0000
           AG WELLS      =           0.0000             AG WELLS      =           0.0000

                TOTAL IN =  2022040064.0000                  TOTAL IN =          17.0831

          OUT:                                     OUT:
          ----                                     ----
             STORAGE     =   447455040.0000               STORAGE     =           7.3123
       CONSTANT HEAD     =           0.0000         CONSTANT HEAD     =           0.0000
     HEAD DEP BOUNDS     =    20756982.0000       HEAD DEP BOUNDS     =           0.2944
      STREAM LEAKAGE     =   738743616.0000        STREAM LEAKAGE     =           9.4772
        UZF RECHARGE     =           0.0000          UZF RECHARGE     =           0.0000
               GW ET     =     7311967.5000                 GW ET     =       2.6851E-04
     SURFACE LEAKAGE     =           0.0000       SURFACE LEAKAGE     =           0.0000
           AG WELLS      =   807776960.0000             AG WELLS      =           0.0000

               TOTAL OUT =  2022044672.0000                 TOTAL OUT =          17.0842

                IN - OUT =       -4608.0000                  IN - OUT =      -1.1387E-03

     PERCENT DISCREPANCY =          -0.00         PERCENT DISCREPANCY =          -0.01






         TIME SUMMARY AT END OF TIME STEP   30 IN STRESS PERIOD   28
                    SECONDS     MINUTES      HOURS       DAYS        YEARS
                    -----------------------------------------------------------
   TIME STEP LENGTH  87667.      1461.1      24.352      1.0147     2.77799E-03
 STRESS PERIOD TIME 2.63000E+06  43833.      730.56      30.440     8.33397E-02
         TOTAL TIME 7.10967E+07 1.18494E+06  19749.      822.88      2.2529    
1
1
                            STRESS PERIOD NO.   29, LENGTH =   2630000.    
                            -----------------------------------------------

                              NUMBER OF TIME STEPS =    30

                               MULTIPLIER FOR DELT =     1.000

                            INITIAL TIME STEP SIZE =   87666.66    

 REUSING NON-PARAMETER GHB CELLS FROM LAST STRESS PERIOD

      2 GHB CELLS

 REUSING STREAM SEGMENT DATA FROM LAST STRESS PERIOD



            AREAL INFILTRATION RATE
 READING ON UNIT   19 WITH FORMAT: (FREE)              

            1           2           3           4           5           6           7           8           9          10
 ........................................................................................................................
   1   1.0000E-10  2.0000E-10   0.000       0.000       0.000       0.000       0.000       0.000       0.000       0.000    
   2   2.0000E-10  1.0000E-10  2.0000E-10   0.000       0.000      8.0000E-10  8.0000E-10  5.0000E-10   0.000       0.000    
   3    0.000      5.0000E-10  1.0000E-10  1.0000E-10  8.0000E-10  8.0000E-10  5.0000E-10  5.0000E-10   0.000       0.000    
   4   8.0000E-10  5.0000E-10  1.0000E-10  1.0000E-10  1.0000E-10  1.0000E-10  1.0000E-10  1.0000E-10  2.0000E-10   0.000    
   5   8.0000E-10  5.0000E-10  1.0000E-10  1.0000E-10  1.0000E-10  1.0000E-10  1.0000E-10  1.0000E-10  1.0000E-10  1.0000E-10
   6   8.0000E-10  5.0000E-10  5.0000E-10  2.0000E-10  2.0000E-10  1.0000E-10  1.0000E-10  1.0000E-10  1.0000E-10  5.0000E-10
   7   8.0000E-10  5.0000E-10  5.0000E-10  2.0000E-10  2.0000E-10  1.0000E-10  1.0000E-10  2.0000E-10  2.0000E-10   0.000    
   8    0.000      5.0000E-10  5.0000E-10  2.0000E-10  2.0000E-10  1.0000E-10  1.0000E-10  2.0000E-10  5.0000E-10   0.000    
   9    0.000      5.0000E-10  5.0000E-10  2.0000E-10  2.0000E-10  1.0000E-10  1.0000E-10  2.0000E-10  5.0000E-10   0.000    
  10    0.000      5.0000E-10  5.0000E-10  2.0000E-10  2.0000E-10  1.0000E-10  1.0000E-10  2.0000E-10  5.0000E-10  8.0000E-10
  11    0.000      1.0000E-10  1.0000E-10  1.0000E-10  1.0000E-10  1.0000E-10  1.0000E-10  2.0000E-10  5.0000E-10   0.000    
  12   1.0000E-10  1.0000E-10  1.0000E-10  1.0000E-10  1.0000E-10  1.0000E-10  1.0000E-10  1.0000E-10  2.0000E-10   0.000    
  13   1.0000E-10  1.0000E-10  2.0000E-10  2.0000E-10  2.0000E-10  2.0000E-10  2.0000E-10  1.0000E-10  1.0000E-10   0.000    
  14    0.000      2.0000E-10  5.0000E-10  5.0000E-10  5.0000E-10  5.0000E-10  5.0000E-10  2.0000E-10  1.0000E-10   0.000    
  15    0.000       0.000      8.0000E-10  8.0000E-10  8.0000E-10  8.0000E-10   0.000       0.000       0.000       0.000    

                  ET RATE =  2.500000E-08

 USING ET EXTINCTION DEPTH FROM PREVIOUS STRESS PERIOD. CURRENT PERIOD IS:      29

 USING EXTINCTION WATER CONTENT FROM PREVIOUS STRESS PERIOD. CURRENT PERIOD IS:      29

 USING AIR ENTRY PRESSURE FROM PREVIOUS STRESS PERIOD. CURRENT PERIOD IS:      29

 USING ROOT PRESSURE HEAD FROM PREVIOUS STRESS PERIOD. CURRENT PERIOD IS:      29

 USING ROOT ACTIVITY FROM PREVIOUS STRESS PERIOD. CURRENT PERIOD IS:      29

 PROCESSING AG STRESS PERIOD DATA

 READING AG STRESS PERIOD DATA

 READING IRRIGATION SEGMENT

 READING IRRIGATION WELL

 READING SUPPLEMENTAL WELL

 NO IRRPOND OR REUSING IRRPOND DATA FROM LAST STRESS PERIOD

 END PROCESSING AG STRESS PERIOD DATA OPTIONS
 
 SOLVING FOR HEAD 
                                                   Max.-Head-Change                         Max.-Flux-Residual
  Residual-Control   Outer-Iter.   Inner-Iter.     Column Row Layer    Maximum-Head-Change  Column Row Layer    Maximum-Flux-Residual          L2-NORM 
          0                 1           2             4    7     1       0.1064113367E-01       4    7    1         0.5567682202E+00      0.1568138644E+01
          0                 2           2             4    7     1      -0.1035094034E-02       4    7    1        -0.5567694929E-01      0.1567973707E+00
          0                 3           1             4    7     1       0.7048604988E-04       4    7    1         0.3897386926E-02      0.1097436900E-01

    ------------------------------------------------
       NWT REQUIRED            3 OUTER ITERATIONS 
       AND A TOTAL OF          5 INNER ITERATIONS.
    ------------------------------------------------

 NO OUTPUT CONTROL FOR STRESS PERIOD   29   TIME STEP    1
 
 SOLVING FOR HEAD 
                                                   Max.-Head-Change                         Max.-Flux-Residual
  Residual-Control   Outer-Iter.   Inner-Iter.     Column Row Layer    Maximum-Head-Change  Column Row Layer    Maximum-Flux-Residual          L2-NORM 
          0                 1           2             4   13     1      -0.1103848865E-01       4   13    1        -0.6338832053E+00      0.1854014569E+01
          0                 2           2             4   13     1       0.1063438839E-02       4   13    1         0.6278800377E-01      0.1838280087E+00
          0                 3           1             4   13     1      -0.7144541907E-04       4   13    1        -0.4337045038E-02      0.1272282354E-01

    ------------------------------------------------
       NWT REQUIRED            3 OUTER ITERATIONS 
       AND A TOTAL OF          5 INNER ITERATIONS.
    ------------------------------------------------

 NO OUTPUT CONTROL FOR STRESS PERIOD   29   TIME STEP    2
 
 SOLVING FOR HEAD 
                                                   Max.-Head-Change                         Max.-Flux-Residual
  Residual-Control   Outer-Iter.   Inner-Iter.     Column Row Layer    Maximum-Head-Change  Column Row Layer    Maximum-Flux-Residual          L2-NORM 
          0                 1           2             4   13     1      -0.1245913862E-01       4   13    1        -0.7144616259E+00      0.1938677425E+01
          0                 2           2             4   13     1       0.1200328562E-02       4   13    1         0.7077467484E-01      0.1914322236E+00
          0                 3           1             4   13     1      -0.8065800404E-04       4   13    1        -0.4889645632E-02      0.1322339699E-01

    ------------------------------------------------
       NWT REQUIRED            3 OUTER ITERATIONS 
       AND A TOTAL OF          5 INNER ITERATIONS.
    ------------------------------------------------

 NO OUTPUT CONTROL FOR STRESS PERIOD   29   TIME STEP    3
 
 SOLVING FOR HEAD 
                                                   Max.-Head-Change                         Max.-Flux-Residual
  Residual-Control   Outer-Iter.   Inner-Iter.     Column Row Layer    Maximum-Head-Change  Column Row Layer    Maximum-Flux-Residual          L2-NORM 
          0                 1           2             4   13     1      -0.1129886428E-01       4   13    1        -0.6475548528E+00      0.1872151697E+01
          0                 2           2             4   13     1       0.1088472826E-02       4   13    1         0.6413873424E-01      0.1855135231E+00
          0                 3           1             4   13     1      -0.7312254800E-04       4   13    1        -0.4430005425E-02      0.1282882348E-01

    ------------------------------------------------
       NWT REQUIRED            3 OUTER ITERATIONS 
       AND A TOTAL OF          5 INNER ITERATIONS.
    ------------------------------------------------

 NO OUTPUT CONTROL FOR STRESS PERIOD   29   TIME STEP    4
 
 SOLVING FOR HEAD 
                                                   Max.-Head-Change                         Max.-Flux-Residual
  Residual-Control   Outer-Iter.   Inner-Iter.     Column Row Layer    Maximum-Head-Change  Column Row Layer    Maximum-Flux-Residual          L2-NORM 
          0                 1           2             4    7     1       0.1034950276E-01       4   13    1        -0.5872502260E+00      0.1816679487E+01
          0                 2           2             4    7     1      -0.1006726184E-02       4   13    1         0.5815858385E-01      0.1801679011E+00
          0                 3           1             4    7     1       0.6855430406E-04       4   13    1        -0.4017237697E-02      0.1247389661E-01

    ------------------------------------------------
       NWT REQUIRED            3 OUTER ITERATIONS 
       AND A TOTAL OF          5 INNER ITERATIONS.
    ------------------------------------------------

 NO OUTPUT CONTROL FOR STRESS PERIOD   29   TIME STEP    5
 
 SOLVING FOR HEAD 
                                                   Max.-Head-Change                         Max.-Flux-Residual
  Residual-Control   Outer-Iter.   Inner-Iter.     Column Row Layer    Maximum-Head-Change  Column Row Layer    Maximum-Flux-Residual          L2-NORM 
          0                 1           2             4    7     1       0.1027828848E-01       4    7    1         0.5377509194E+00      0.1767636248E+01
          0                 2           2             4    7     1      -0.9997989490E-03       4    7    1        -0.5377520960E-01      0.1754453327E+00
          0                 3           1             4    7     1       0.6808258547E-04       4    7    1         0.3764265185E-02      0.1216128276E-01

    ------------------------------------------------
       NWT REQUIRED            3 OUTER ITERATIONS 
       AND A TOTAL OF          5 INNER ITERATIONS.
    ------------------------------------------------

 NO OUTPUT CONTROL FOR STRESS PERIOD   29   TIME STEP    6
 
 SOLVING FOR HEAD 
                                                   Max.-Head-Change                         Max.-Flux-Residual
  Residual-Control   Outer-Iter.   Inner-Iter.     Column Row Layer    Maximum-Head-Change  Column Row Layer    Maximum-Flux-Residual          L2-NORM 
          0                 1           2             4    7     1       0.1020756773E-01       4    7    1         0.5340438636E+00      0.1724207321E+01
          0                 2           2             4    7     1      -0.9929197211E-03       4    7    1        -0.5340450218E-01      0.1712613838E+00
          0                 3           1             4    7     1       0.6761413605E-04       4    7    1         0.3738315671E-02      0.1188199688E-01

    ------------------------------------------------
       NWT REQUIRED            3 OUTER ITERATIONS 
       AND A TOTAL OF          5 INNER ITERATIONS.
    ------------------------------------------------

 NO OUTPUT CONTROL FOR STRESS PERIOD   29   TIME STEP    7
 
 SOLVING FOR HEAD 
                                                   Max.-Head-Change                         Max.-Flux-Residual
  Residual-Control   Outer-Iter.   Inner-Iter.     Column Row Layer    Maximum-Head-Change  Column Row Layer    Maximum-Flux-Residual          L2-NORM 
          0                 1           2             4    7     1       0.1013748098E-01       4    7    1         0.5303697382E+00      0.1685664916E+01
          0                 2           2             4    7     1      -0.9861021641E-03       4    7    1        -0.5303708783E-01      0.1675492898E+00
          0                 3           1             4    7     1       0.6714988569E-04       4    7    1         0.3712596671E-02      0.1163817658E-01

    ------------------------------------------------
       NWT REQUIRED            3 OUTER ITERATIONS 
       AND A TOTAL OF          5 INNER ITERATIONS.
    ------------------------------------------------

 NO OUTPUT CONTROL FOR STRESS PERIOD   29   TIME STEP    8
 
 SOLVING FOR HEAD 
                                                   Max.-Head-Change                         Max.-Flux-Residual
  Residual-Control   Outer-Iter.   Inner-Iter.     Column Row Layer    Maximum-Head-Change  Column Row Layer    Maximum-Flux-Residual          L2-NORM 
          0                 1           2             4    7     1       0.1006802733E-01       4    7    1         0.5267284844E+00      0.1651374216E+01
          0                 2           2             4    7     1      -0.9793461915E-03       4    7    1        -0.5267296070E-01      0.1642463061E+00
          0                 3           1             4    7     1       0.6668982965E-04       4    7    1         0.3687107777E-02      0.1141600778E-01

    ------------------------------------------------
       NWT REQUIRED            3 OUTER ITERATIONS 
       AND A TOTAL OF          5 INNER ITERATIONS.
    ------------------------------------------------

 NO OUTPUT CONTROL FOR STRESS PERIOD   29   TIME STEP    9
 
 SOLVING FOR HEAD 
                                                   Max.-Head-Change                         Max.-Flux-Residual
  Residual-Control   Outer-Iter.   Inner-Iter.     Column Row Layer    Maximum-Head-Change  Column Row Layer    Maximum-Flux-Residual          L2-NORM 
          0                 1           2             4    7     1       0.9999201185E-02       4    7    1         0.5231200561E+00      0.1620766599E+01
          0                 2           2             4    7     1      -0.9726512589E-03       4    7    1        -0.5231211611E-01      0.1612958082E+00
          0                 3           1             4    7     1       0.6623392984E-04       4    7    1         0.3661848667E-02      0.1121861779E-01

    ------------------------------------------------
       NWT REQUIRED            3 OUTER ITERATIONS 
       AND A TOTAL OF          5 INNER ITERATIONS.
    ------------------------------------------------

 NO OUTPUT CONTROL FOR STRESS PERIOD   29   TIME STEP   10
 
 SOLVING FOR HEAD 
                                                   Max.-Head-Change                         Max.-Flux-Residual
  Residual-Control   Outer-Iter.   Inner-Iter.     Column Row Layer    Maximum-Head-Change  Column Row Layer    Maximum-Flux-Residual          L2-NORM 
          0                 1           2             4    7     1       0.9931001494E-02       4    7    1         0.5195441631E+00      0.1593362691E+01
          0                 2           2             4    7     1      -0.9660172626E-03       4    7    1        -0.5195452508E-01      0.1586534030E+00
          0                 3           1             4    7     1       0.6578217985E-04       4    7    1         0.3636817292E-02      0.1104288421E-01

    ------------------------------------------------
       NWT REQUIRED            3 OUTER ITERATIONS 
       AND A TOTAL OF          5 INNER ITERATIONS.
    ------------------------------------------------

 NO OUTPUT CONTROL FOR STRESS PERIOD   29   TIME STEP   11
 
 SOLVING FOR HEAD 
                                                   Max.-Head-Change                         Max.-Flux-Residual
  Residual-Control   Outer-Iter.   Inner-Iter.     Column Row Layer    Maximum-Head-Change  Column Row Layer    Maximum-Flux-Residual          L2-NORM 
          0                 1           2             4    7     1       0.9863426036E-02       4    7    1         0.5160007506E+00      0.1568728653E+01
          0                 2           2             4    7     1      -0.9594439878E-03       4    7    1        -0.5160018213E-01      0.1562760859E+00
          0                 3           1             4    7     1       0.6533456454E-04       4    7    1         0.3612013297E-02      0.1088440200E-01

    ------------------------------------------------
       NWT REQUIRED            3 OUTER ITERATIONS 
       AND A TOTAL OF          5 INNER ITERATIONS.
    ------------------------------------------------

 NO OUTPUT CONTROL FOR STRESS PERIOD   29   TIME STEP   12
 
 SOLVING FOR HEAD 
                                                   Max.-Head-Change                         Max.-Flux-Residual
  Residual-Control   Outer-Iter.   Inner-Iter.     Column Row Layer    Maximum-Head-Change  Column Row Layer    Maximum-Flux-Residual          L2-NORM 
          0                 1           2             4    7     1       0.9796469205E-02       4    7    1         0.5124897036E+00      0.1546481606E+01
          0                 2           2             4    7     1      -0.9529308892E-03       4    7    1        -0.5124907575E-01      0.1541256040E+00
          0                 3           1             4    7     1       0.6489104699E-04       4    7    1         0.3587435869E-02      0.1073972888E-01

    ------------------------------------------------
       NWT REQUIRED            3 OUTER ITERATIONS 
       AND A TOTAL OF          5 INNER ITERATIONS.
    ------------------------------------------------

 NO OUTPUT CONTROL FOR STRESS PERIOD   29   TIME STEP   13
 
 SOLVING FOR HEAD 
                                                   Max.-Head-Change                         Max.-Flux-Residual
  Residual-Control   Outer-Iter.   Inner-Iter.     Column Row Layer    Maximum-Head-Change  Column Row Layer    Maximum-Flux-Residual          L2-NORM 
          0                 1           2             4    7     1       0.9730126749E-02       4    7    1         0.5090107314E+00      0.1526303363E+01
          0                 2           2             4    7     1      -0.9464775525E-03       4    7    1        -0.5090117690E-01      0.1521739512E+00
          0                 3           1             4    7     1       0.6445159857E-04       4    7    1         0.3563082927E-02      0.1061054618E-01

    ------------------------------------------------
       NWT REQUIRED            3 OUTER ITERATIONS 
       AND A TOTAL OF          5 INNER ITERATIONS.
    ------------------------------------------------

 NO OUTPUT CONTROL FOR STRESS PERIOD   29   TIME STEP   14
 
 SOLVING FOR HEAD 
                                                   Max.-Head-Change                         Max.-Flux-Residual
  Residual-Control   Outer-Iter.   Inner-Iter.     Column Row Layer    Maximum-Head-Change  Column Row Layer    Maximum-Flux-Residual          L2-NORM 
          0                 1           2             4    7     1       0.9664396955E-02       4    7    1         0.5055636136E+00      0.1507905212E+01
          0                 2           2             4    7     1      -0.9400838121E-03       4    7    1        -0.5055646350E-01      0.1503911622E+00
          0                 3           1             4    7     1       0.6401620898E-04       4    7    1         0.3538953017E-02      0.1049086296E-01

    ------------------------------------------------
       NWT REQUIRED            3 OUTER ITERATIONS 
       AND A TOTAL OF          5 INNER ITERATIONS.
    ------------------------------------------------

 NO OUTPUT CONTROL FOR STRESS PERIOD   29   TIME STEP   15
 
 SOLVING FOR HEAD 
                                                   Max.-Head-Change                         Max.-Flux-Residual
  Residual-Control   Outer-Iter.   Inner-Iter.     Column Row Layer    Maximum-Head-Change  Column Row Layer    Maximum-Flux-Residual          L2-NORM 
          0                 1           2             4    7     1       0.9599275689E-02       4    7    1         0.5021482613E+00      0.1491067262E+01
          0                 2           2             4    7     1      -0.9337492649E-03       4    7    1        -0.5021492669E-01      0.1487571998E+00
          0                 3           1             4    7     1       0.6358485005E-04       4    7    1         0.3515045432E-02      0.1038116831E-01

    ------------------------------------------------
       NWT REQUIRED            3 OUTER ITERATIONS 
       AND A TOTAL OF          5 INNER ITERATIONS.
    ------------------------------------------------

 NO OUTPUT CONTROL FOR STRESS PERIOD   29   TIME STEP   16
 
 SOLVING FOR HEAD 
                                                   Max.-Head-Change                         Max.-Flux-Residual
  Residual-Control   Outer-Iter.   Inner-Iter.     Column Row Layer    Maximum-Head-Change  Column Row Layer    Maximum-Flux-Residual          L2-NORM 
          0                 1           2             4    7     1       0.9534756771E-02       4    7    1         0.4987644603E+00      0.1475555125E+01
          0                 2           2             4    7     1      -0.9274733099E-03       4    7    1        -0.4987654501E-01      0.1472537628E+00
          0                 3           1             4    7     1       0.6315748095E-04       4    7    1         0.3491358720E-02      0.1028426338E-01

    ------------------------------------------------
       NWT REQUIRED            3 OUTER ITERATIONS 
       AND A TOTAL OF          5 INNER ITERATIONS.
    ------------------------------------------------

 NO OUTPUT CONTROL FOR STRESS PERIOD   29   TIME STEP   17
 
 SOLVING FOR HEAD 
                                                   Max.-Head-Change                         Max.-Flux-Residual
  Residual-Control   Outer-Iter.   Inner-Iter.     Column Row Layer    Maximum-Head-Change  Column Row Layer    Maximum-Flux-Residual          L2-NORM 
          0                 1           2             4    7     1       0.9470834790E-02       4    7    1         0.4954118900E+00      0.1461205222E+01
          0                 2           2             4    7     1      -0.9212554211E-03       4    7    1        -0.4954128643E-01      0.1458523404E+00
          0                 3           1             4    7     1       0.6273406632E-04       4    7    1         0.3467890622E-02      0.1018456603E-01

    ------------------------------------------------
       NWT REQUIRED            3 OUTER ITERATIONS 
       AND A TOTAL OF          5 INNER ITERATIONS.
    ------------------------------------------------

 NO OUTPUT CONTROL FOR STRESS PERIOD   29   TIME STEP   18
 
 SOLVING FOR HEAD 
                                                   Max.-Head-Change                         Max.-Flux-Residual
  Residual-Control   Outer-Iter.   Inner-Iter.     Column Row Layer    Maximum-Head-Change  Column Row Layer    Maximum-Flux-Residual          L2-NORM 
          0                 1           2             4    7     1       0.9407509205E-02       4    7    1         0.4920902700E+00      0.1447862645E+01
          0                 2           2             4    7     1      -0.9150955459E-03       4    7    1        -0.4920912293E-01      0.1445515823E+00
          0                 3           1             4    7     1       0.6231460176E-04       4    7    1         0.3444639173E-02      0.1009716091E-01

    ------------------------------------------------
       NWT REQUIRED            3 OUTER ITERATIONS 
       AND A TOTAL OF          5 INNER ITERATIONS.
    ------------------------------------------------

 NO OUTPUT CONTROL FOR STRESS PERIOD   29   TIME STEP   19
 
 SOLVING FOR HEAD 
                                                   Max.-Head-Change                         Max.-Flux-Residual
  Residual-Control   Outer-Iter.   Inner-Iter.     Column Row Layer    Maximum-Head-Change  Column Row Layer    Maximum-Flux-Residual          L2-NORM 
          0                 1           2             4    7     1       0.9344771076E-02       4    7    1         0.4887995722E+00      0.1435391443E+01
          0                 2           2             4    7     1      -0.9089928146E-03       4    7    1        -0.4888005165E-01      0.1433333491E+00
          0                 3           1             4    7     1       0.6189902882E-04       4    7    1         0.3421604204E-02      0.1001461732E-01

    ------------------------------------------------
       NWT REQUIRED            3 OUTER ITERATIONS 
       AND A TOTAL OF          5 INNER ITERATIONS.
    ------------------------------------------------

 NO OUTPUT CONTROL FOR STRESS PERIOD   29   TIME STEP   20
 
 SOLVING FOR HEAD 
                                                   Max.-Head-Change                         Max.-Flux-Residual
  Residual-Control   Outer-Iter.   Inner-Iter.     Column Row Layer    Maximum-Head-Change  Column Row Layer    Maximum-Flux-Residual          L2-NORM 
          0                 1           2             4    7     1       0.9282615615E-02       4    7    1         0.4855393330E+00      0.1423673629E+01
          0                 2           2             4    7     1      -0.9029467611E-03       4    7    1        -0.4855402626E-01      0.1421864439E+00
          0                 3           1             4    7     1       0.6148731507E-04       4    7    1         0.3398782429E-02      0.9936339486E-02

    ------------------------------------------------
       NWT REQUIRED            3 OUTER ITERATIONS 
       AND A TOTAL OF          5 INNER ITERATIONS.
    ------------------------------------------------

 NO OUTPUT CONTROL FOR STRESS PERIOD   29   TIME STEP   21
 
 SOLVING FOR HEAD 
                                                   Max.-Head-Change                         Max.-Flux-Residual
  Residual-Control   Outer-Iter.   Inner-Iter.     Column Row Layer    Maximum-Head-Change  Column Row Layer    Maximum-Flux-Residual          L2-NORM 
          0                 1           2             4    7     1       0.9221041491E-02       4    7    1         0.4823093042E+00      0.1412623319E+01
          0                 2           2             4    7     1      -0.8969572561E-03       4    7    1        -0.4823102192E-01      0.1411034554E+00
          0                 3           1             4    7     1       0.6107945176E-04       4    7    1         0.3376172120E-02      0.9862607372E-02

    ------------------------------------------------
       NWT REQUIRED            3 OUTER ITERATIONS 
       AND A TOTAL OF          5 INNER ITERATIONS.
    ------------------------------------------------

 NO OUTPUT CONTROL FOR STRESS PERIOD   29   TIME STEP   22
 
 SOLVING FOR HEAD 
                                                   Max.-Head-Change                         Max.-Flux-Residual
  Residual-Control   Outer-Iter.   Inner-Iter.     Column Row Layer    Maximum-Head-Change  Column Row Layer    Maximum-Flux-Residual          L2-NORM 
          0                 1           2             4    7     1       0.9160176581E-02       4    7    1         0.4791167611E+00      0.1402155055E+01
          0                 2           2             4    7     1      -0.8910367392E-03       4    7    1        -0.4791176622E-01      0.1400749972E+00
          0                 3           1             4    7     1       0.6067628713E-04       4    7    1         0.3353824235E-02      0.9791752915E-02

    ------------------------------------------------
       NWT REQUIRED            3 OUTER ITERATIONS 
       AND A TOTAL OF          5 INNER ITERATIONS.
    ------------------------------------------------

 NO OUTPUT CONTROL FOR STRESS PERIOD   29   TIME STEP   23
 
 SOLVING FOR HEAD 
                                                   Max.-Head-Change                         Max.-Flux-Residual
  Residual-Control   Outer-Iter.   Inner-Iter.     Column Row Layer    Maximum-Head-Change  Column Row Layer    Maximum-Flux-Residual          L2-NORM 
          0                 1           2             4    7     1       0.9099738812E-02       4    7    1         0.4759463010E+00      0.1392190549E+01
          0                 2           2             4    7     1      -0.8851577715E-03       4    7    1        -0.4759471882E-01      0.1390962490E+00
          0                 3           1             4    7     1       0.6027595133E-04       4    7    1         0.3331630910E-02      0.9725545964E-02

    ------------------------------------------------
       NWT REQUIRED            3 OUTER ITERATIONS 
       AND A TOTAL OF          5 INNER ITERATIONS.
    ------------------------------------------------

 NO OUTPUT CONTROL FOR STRESS PERIOD   29   TIME STEP   24
 
 SOLVING FOR HEAD 
                                                   Max.-Head-Change                         Max.-Flux-Residual
  Residual-Control   Outer-Iter.   Inner-Iter.     Column Row Layer    Maximum-Head-Change  Column Row Layer    Maximum-Flux-Residual          L2-NORM 
          0                 1           2             4    7     1       0.9040001255E-02       4    7    1         0.4728126764E+00      0.1382676289E+01
          0                 2           2             4    7     1      -0.8793469157E-03       4    7    1        -0.4728135499E-01      0.1381589871E+00
          0                 3           1             4    7     1       0.5988025374E-04       4    7    1         0.3309695442E-02      0.9661117216E-02

    ------------------------------------------------
       NWT REQUIRED            3 OUTER ITERATIONS 
       AND A TOTAL OF          5 INNER ITERATIONS.
    ------------------------------------------------

 NO OUTPUT CONTROL FOR STRESS PERIOD   29   TIME STEP   25
 
 SOLVING FOR HEAD 
                                                   Max.-Head-Change                         Max.-Flux-Residual
  Residual-Control   Outer-Iter.   Inner-Iter.     Column Row Layer    Maximum-Head-Change  Column Row Layer    Maximum-Flux-Residual          L2-NORM 
          0                 1           2             4    7     1       0.8980814022E-02       4    7    1         0.4697080122E+00      0.1373550712E+01
          0                 2           2             4    7     1      -0.8735895918E-03       4    7    1        -0.4697088722E-01      0.1372592103E+00
          0                 3           1             4    7     1       0.5948820162E-04       4    7    1         0.3287962704E-02      0.9599286763E-02

    ------------------------------------------------
       NWT REQUIRED            3 OUTER ITERATIONS 
       AND A TOTAL OF          5 INNER ITERATIONS.
    ------------------------------------------------

 NO OUTPUT CONTROL FOR STRESS PERIOD   29   TIME STEP   26
 
 SOLVING FOR HEAD 
                                                   Max.-Head-Change                         Max.-Flux-Residual
  Residual-Control   Outer-Iter.   Inner-Iter.     Column Row Layer    Maximum-Head-Change  Column Row Layer    Maximum-Flux-Residual          L2-NORM 
          0                 1           2             4    7     1       0.8922041178E-02       4    7    1         0.4666245366E+00      0.1364773793E+01
          0                 2           2             4    7     1      -0.8678725772E-03       4    7    1        -0.4666253834E-01      0.1363925433E+00
          0                 3           1             4    7     1       0.5909889432E-04       4    7    1         0.3266378298E-02      0.9539782118E-02

    ------------------------------------------------
       NWT REQUIRED            3 OUTER ITERATIONS 
       AND A TOTAL OF          5 INNER ITERATIONS.
    ------------------------------------------------

 NO OUTPUT CONTROL FOR STRESS PERIOD   29   TIME STEP   27
 
 SOLVING FOR HEAD 
                                                   Max.-Head-Change                         Max.-Flux-Residual
  Residual-Control   Outer-Iter.   Inner-Iter.     Column Row Layer    Maximum-Head-Change  Column Row Layer    Maximum-Flux-Residual          L2-NORM 
          0                 1           2             4    7     1       0.8863954840E-02       4    7    1         0.4635772361E+00      0.1356309746E+01
          0                 2           2             4    7     1      -0.8622223411E-03       4    7    1        -0.4635780699E-01      0.1355559287E+00
          0                 3           1             4    7     1       0.5871413423E-04       4    7    1         0.3245047100E-02      0.9482058425E-02

    ------------------------------------------------
       NWT REQUIRED            3 OUTER ITERATIONS 
       AND A TOTAL OF          5 INNER ITERATIONS.
    ------------------------------------------------

 NO OUTPUT CONTROL FOR STRESS PERIOD   29   TIME STEP   28
 
 SOLVING FOR HEAD 
                                                   Max.-Head-Change                         Max.-Flux-Residual
  Residual-Control   Outer-Iter.   Inner-Iter.     Column Row Layer    Maximum-Head-Change  Column Row Layer    Maximum-Flux-Residual          L2-NORM 
          0                 1           2             4    7     1       0.8806404061E-02       4    7    1         0.4605581850E+00      0.1348119232E+01
          0                 2           2             4    7     1      -0.8566242002E-03       4    7    1        -0.4605590059E-01      0.1347451697E+00
          0                 3           1             4    7     1       0.5833292199E-04       4    7    1         0.3223913652E-02      0.9426008857E-02

    ------------------------------------------------
       NWT REQUIRED            3 OUTER ITERATIONS 
       AND A TOTAL OF          5 INNER ITERATIONS.
    ------------------------------------------------

 NO OUTPUT CONTROL FOR STRESS PERIOD   29   TIME STEP   29
 
 SOLVING FOR HEAD 
                                                   Max.-Head-Change                         Max.-Flux-Residual
  Residual-Control   Outer-Iter.   Inner-Iter.     Column Row Layer    Maximum-Head-Change  Column Row Layer    Maximum-Flux-Residual          L2-NORM 
          0                 1           2             4    7     1       0.8749640149E-02       4    7    1         0.4575742470E+00      0.1413092461E+01
          0                 2           2             4    7     1      -0.8511025993E-03       4    7    1        -0.4575750545E-01      0.1408994126E+00
          0                 3           1             4    7     1       0.5795692141E-04       4    7    1         0.3203026008E-02      0.9825963207E-02

    ------------------------------------------------
       NWT REQUIRED            3 OUTER ITERATIONS 
       AND A TOTAL OF          5 INNER ITERATIONS.
    ------------------------------------------------

 NO OUTPUT CONTROL FOR STRESS PERIOD   29   TIME STEP   30



 STREAM LISTING     PERIOD     29   STEP       30

 LAYER ROW COL. STREAM  RCH.  FLOW INTO     FLOW TO   FLOW OUT OF   OVRLND.     DIRECT     STREAM       STREAM     STREAM     STREAM   STREAMBED  STREAMBED
                SEG.NO.  NO.  STRM. RCH.    AQUIFER    STRM. RCH.    RUNOFF     PRECIP       ET          HEAD       DEPTH      WIDTH   CONDCTNC.   GRADIENT

   1    1    1     1     1    3.7161E+01  2.9408E-01   3.6867E+01  0.000E+00  0.000E+00  0.000E+00  1.09436E+03  1.310E+00  1.516E+01  6.824E-02  1.437E+00
   1    2    2     1     2    3.6867E+01  4.5538E-01   3.6412E+01  0.000E+00  0.000E+00  0.000E+00  1.08937E+03  1.307E+00  1.511E+01  1.057E-01  1.436E+00
   1    3    3     1     3    3.6412E+01  3.8831E-01   3.6024E+01  0.000E+00  0.000E+00  0.000E+00  1.08372E+03  1.303E+00  1.504E+01  9.023E-02  1.434E+00
   1    3    4     1     4    3.6024E+01  3.5753E-01   3.5666E+01  0.000E+00  0.000E+00  0.000E+00  1.07871E+03  1.300E+00  1.498E+01  8.314E-02  1.433E+00
   1    4    5     2     1    3.3666E+01  3.4626E-01   3.3320E+01  0.000E+00  0.000E+00  0.000E+00  1.07337E+03  1.439E+00  1.200E+01  7.800E-02  1.480E+00
   1    5    6     2     2    3.3320E+01  2.6588E-01   3.3054E+01  0.000E+00  0.000E+00  0.000E+00  1.06794E+03  1.431E+00  1.200E+01  6.000E-02  1.477E+00
   1    6    6     2     3    3.3054E+01  2.6546E-01   3.2789E+01  0.000E+00  0.000E+00  0.000E+00  1.06322E+03  1.424E+00  1.200E+01  6.000E-02  1.475E+00
   1    7    6     2     4    3.2789E+01  2.6505E-01   3.2524E+01  0.000E+00  0.000E+00  0.000E+00  1.05849E+03  1.417E+00  1.200E+01  6.000E-02  1.472E+00
   1    8    6     2     5    3.2524E+01  2.6464E-01   3.2259E+01  0.000E+00  0.000E+00  0.000E+00  1.05377E+03  1.411E+00  1.200E+01  6.000E-02  1.470E+00
   1    3    5     3     1    2.0000E+00  2.8252E-01   1.7175E+00  0.000E+00  0.000E+00  0.000E+00  1.07555E+03  1.909E+00  9.636E+00  7.227E-02  1.955E+00
   1    3    6     3     2    1.7175E+00  2.4905E-01   1.4684E+00  0.000E+00  0.000E+00  0.000E+00  1.07264E+03  1.727E+00  8.909E+00  6.682E-02  1.864E+00
   1    3    7     3     3    1.4684E+00  1.9718E-01   1.2712E+00  0.000E+00  0.000E+00  0.000E+00  1.06987E+03  1.555E+00  8.218E+00  5.547E-02  1.777E+00
   1    4    8     3     4    1.2712E+00  2.2567E-01   1.0456E+00  0.000E+00  0.000E+00  0.000E+00  1.06682E+03  1.364E+00  7.455E+00  6.709E-02  1.682E+00
   1    5    8     3     5    1.0456E+00  1.5790E-01   8.8768E-01  0.000E+00  0.000E+00  0.000E+00  1.06362E+03  1.164E+00  6.655E+00  4.991E-02  1.582E+00
   1    6    8     3     6    8.8768E-01  5.5980E-02   8.3170E-01  0.000E+00  0.000E+00  0.000E+00  1.06158E+03  1.036E+00  6.145E+00  1.844E-02  1.518E+00
   1    5   10     4     1    1.0000E+01  9.0919E-02   9.9091E+00  0.000E+00  0.000E+00  0.000E+00  1.07836E+03  6.368E-01  1.000E+01  2.500E-02  1.212E+00
   1    5    9     4     2    9.9091E+00  1.8158E-01   9.7275E+00  0.000E+00  0.000E+00  0.000E+00  1.07154E+03  6.315E-01  1.000E+01  5.000E-02  1.211E+00
   1    6    8     4     3    9.7275E+00  1.2689E-01   9.6006E+00  0.000E+00  0.000E+00  0.000E+00  1.06381E+03  6.256E-01  1.000E+01  3.500E-02  1.209E+00
   1    6    8     5     1    1.0432E+01  2.2686E-01   1.0205E+01  0.000E+00  0.000E+00  0.000E+00  1.05868E+03  6.790E-01  1.542E+01  6.166E-02  1.226E+00
   1    7    7     5     2    1.0205E+01  2.7894E-01   9.9265E+00  0.000E+00  0.000E+00  0.000E+00  1.05417E+03  6.732E-01  1.519E+01  7.594E-02  1.224E+00
   1    8    7     5     3    9.9265E+00  1.9221E-01   9.7343E+00  0.000E+00  0.000E+00  0.000E+00  1.04992E+03  6.676E-01  1.497E+01  5.241E-02  1.223E+00
   1    8    6     5     4    9.7343E+00  1.3577E-01   9.5985E+00  0.000E+00  0.000E+00  0.000E+00  1.04691E+03  6.637E-01  1.482E+01  3.706E-02  1.221E+00
   1    9    6     6     1    4.1857E+01  2.7961E-01   4.1578E+01  0.000E+00  0.000E+00  0.000E+00  1.04439E+03  1.660E+00  1.200E+01  6.000E-02  1.553E+00
   1   10    7     6     2    4.1578E+01  2.7921E-01   4.1299E+01  0.000E+00  0.000E+00  0.000E+00  1.03984E+03  1.654E+00  1.200E+01  6.000E-02  1.551E+00
   1   11    7     6     3    4.1299E+01  2.7881E-01   4.1020E+01  0.000E+00  0.000E+00  0.000E+00  1.03528E+03  1.647E+00  1.200E+01  6.000E-02  1.549E+00
   1   12    7     6     4    4.1020E+01  2.7841E-01   4.0741E+01  0.000E+00  0.000E+00  0.000E+00  1.03073E+03  1.640E+00  1.200E+01  6.000E-02  1.547E+00
   1   13    7     6     5    4.0741E+01  1.7152E-02   4.0724E+01  0.000E+00  0.000E+00  0.000E+00  1.02755E+03  1.637E+00  1.200E+01  2.400E-02  2.382E-01
   1   14    9     7     1    1.5000E+02  1.3495E+00   1.4865E+02  0.000E+00  0.000E+00  0.000E+00  1.03987E+03  2.288E+00  5.529E+01  5.593E-01  8.043E-01
   1   13    8     7     2    1.4865E+02  1.9012E+00   1.4675E+02  0.000E+00  0.000E+00  0.000E+00  1.03478E+03  2.279E+00  5.526E+01  6.148E-01  1.031E+00
   1   13    7     7     3    1.4675E+02  1.5960E+00   1.4515E+02  0.000E+00  0.000E+00  0.000E+00  1.02969E+03  2.270E+00  5.521E+01  5.584E-01  9.527E-01
   1   13    6     8     1    1.8588E+02  1.1215E+00   1.8476E+02  0.000E+00  0.000E+00  0.000E+00  1.02492E+03  3.049E+00  4.421E+01  4.506E-01  8.297E-01
   1   13    5     8     2    1.8476E+02  3.4033E-01   1.8442E+02  0.000E+00  0.000E+00  0.000E+00  1.01867E+03  3.045E+00  4.415E+01  4.499E-01  2.522E-01
   1   13    4     8     3    1.8442E+02 -1.7391E+00   1.8615E+02  0.000E+00  0.000E+00  0.000E+00  1.01242E+03  3.049E+00  4.421E+01  4.505E+00 -1.287E-01
   1   13    3     8     4    1.8615E+02 -3.2222E+00   1.8938E+02  0.000E+00  0.000E+00  0.000E+00  1.00619E+03  3.064E+00  4.443E+01  4.528E+00 -2.372E-01
   1   13    2     8     5    1.8938E+02 -2.2994E+00   1.9168E+02  0.000E+00  0.000E+00  0.000E+00  9.99956E+02  3.081E+00  4.468E+01  4.553E+00 -1.684E-01
   1   13    1     8     6    1.9168E+02 -1.8842E+00   1.9356E+02  0.000E+00  0.000E+00  0.000E+00  9.94969E+02  3.094E+00  4.486E+01  2.743E+00 -2.290E-01
   1    8    6     9     1    0.0000E+00  0.0000E+00   0.0000E+00  0.000E+00  0.000E+00  0.000E+00  1.07875E+03  0.000E+00  4.000E+00  0.000E+00  1.000E+00
   1    8    5     9     2    0.0000E+00  0.0000E+00   0.0000E+00  0.000E+00  0.000E+00  0.000E+00  1.07825E+03  0.000E+00  4.000E+00  0.000E+00  1.000E+00





UNSATURATED ZONE PACKAGE VOLUMETRIC BUDGET FOR  TIME STEP    30 STRESS PERIOD   29
  ------------------------------------------------------------------------------



     CUMULATIVE VOLUMES      L**3       RATES FOR THIS TIME STEP      L**3/T
     ------------------                 ------------------------

           IN:                                      IN:
           ---                                      ---
        INFILTRATION =   870261837.4417          INFILTRATION =           0.8475

          OUT:                                     OUT:
          ----                                     ----
              UZF ET =   869454918.6216                UZF ET =           0.8475
        UZF RECHARGE =       73224.0000          UZF RECHARGE =       0.0000E+00

            IN - OUT =      733694.8200              IN - OUT =       0.0000E+00

          STORAGE:                                 STORAGE:
          --------                                 --------
      STORAGE CHANGE =      733694.8611        STORAGE CHANGE =      -1.9919E-15

 PERCENT DISCREPANCY IS DIFFERENCE BETWEEN IN-OUT MINUS CHANGE IN STORAGE
 DIVIDED BY THE AVERAGE OF IN AND OUT TIMES 100

 PERCENT DISCREPANCY =           0.00     PERCENT DISCREPANCY =           0.00






1
  VOLUMETRIC BUDGET FOR AGRICULTURAL FIELDS AT  END OF TIME STEP   30, STRESS PERIOD  29
  ------------------------------------------------------------------------------

     CUMULATIVE VOLUMES      L**3       RATES FOR THIS TIME STEP      L**3/T
     ------------------                 ------------------------

           IN:                                      IN:
           ---                                      ---
               AG WELLS  =   807776960.0000                 AG WELLS  =           0.0000
      DIVERSION SEGMENTS =           0.0000        DIVERSION SEGMENTS =           0.0000
       IRRIGATION PONDS  =           0.0000         IRRIGATION PONDS  =           0.0000
           GW IRRIGATION =           0.0000             GW IRRIGATION =           0.0000
           SW IRRIGATION =           0.0000             SW IRRIGATION =           0.0000
        SYSTEM LOSSES GW =           0.0000          SYSTEM LOSSES GW =           0.0000
        SYSTEM LOSSES SW =           0.0000          SYSTEM LOSSES SW =           0.0000

                TOTAL IN =   807776960.0000                  TOTAL IN =           0.0000

          OUT:                                     OUT:
          ----                                     ----
               AG WELLS  =           0.0000                 AG WELLS  =           0.0000
      DIVERSION SEGMENTS =           0.0000        DIVERSION SEGMENTS =           0.0000
       IRRIGATION PONDS  =           0.0000         IRRIGATION PONDS  =           0.0000
           GW IRRIGATION =   807776960.0000             GW IRRIGATION =           0.0000
           SW IRRIGATION =           0.0000             SW IRRIGATION =           0.0000
        SYSTEM LOSSES GW =           0.0000          SYSTEM LOSSES GW =           0.0000
        SYSTEM LOSSES SW =           0.0000          SYSTEM LOSSES SW =           0.0000

               TOTAL OUT =   807776960.0000                 TOTAL OUT =           0.0000

                IN - OUT =           0.0000                  IN - OUT =           0.0000

     PERCENT DISCREPANCY =           0.00         PERCENT DISCREPANCY =           0.00



1
  VOLUMETRIC BUDGET FOR ENTIRE MODEL AT END OF TIME STEP   30, STRESS PERIOD  29
  ------------------------------------------------------------------------------

     CUMULATIVE VOLUMES      L**3       RATES FOR THIS TIME STEP      L**3/T
     ------------------                 ------------------------

           IN:                                      IN:
           ---                                      ---
             STORAGE     =  1152682368.0000               STORAGE     =           3.2172
       CONSTANT HEAD     =           0.0000         CONSTANT HEAD     =           0.0000
     HEAD DEP BOUNDS     =    21078066.0000       HEAD DEP BOUNDS     =           0.2867
      STREAM LEAKAGE     =   893384896.0000        STREAM LEAKAGE     =          12.7457
        UZF RECHARGE     =       73223.9531          UZF RECHARGE     =           0.0000
               GW ET     =           0.0000                 GW ET     =           0.0000
     SURFACE LEAKAGE     =           0.0000       SURFACE LEAKAGE     =           0.0000
           AG WELLS      =           0.0000             AG WELLS      =           0.0000

                TOTAL IN =  2067218432.0000                  TOTAL IN =          16.2496

          OUT:                                     OUT:
          ----                                     ----
             STORAGE     =   463567552.0000               STORAGE     =           6.8147
       CONSTANT HEAD     =           0.0000         CONSTANT HEAD     =           0.0000
     HEAD DEP BOUNDS     =    21525734.0000       HEAD DEP BOUNDS     =           0.2909
      STREAM LEAKAGE     =   767038720.0000        STREAM LEAKAGE     =           9.1449
        UZF RECHARGE     =           0.0000          UZF RECHARGE     =           0.0000
               GW ET     =     7314977.5000                 GW ET     =           0.0000
     SURFACE LEAKAGE     =           0.0000       SURFACE LEAKAGE     =           0.0000
           AG WELLS      =   807776960.0000             AG WELLS      =           0.0000

               TOTAL OUT =  2067223808.0000                 TOTAL OUT =          16.2506

                IN - OUT =       -5376.0000                  IN - OUT =      -1.0223E-03

     PERCENT DISCREPANCY =          -0.00         PERCENT DISCREPANCY =          -0.01






         TIME SUMMARY AT END OF TIME STEP   30 IN STRESS PERIOD   29
                    SECONDS     MINUTES      HOURS       DAYS        YEARS
                    -----------------------------------------------------------
   TIME STEP LENGTH  87667.      1461.1      24.352      1.0147     2.77799E-03
 STRESS PERIOD TIME 2.63000E+06  43833.      730.56      30.440     8.33397E-02
         TOTAL TIME 7.37266E+07 1.22878E+06  20480.      853.32      2.3363    
1
1
                            STRESS PERIOD NO.   30, LENGTH =   2630000.    
                            -----------------------------------------------

                              NUMBER OF TIME STEPS =    30

                               MULTIPLIER FOR DELT =     1.000

                            INITIAL TIME STEP SIZE =   87666.66    

 REUSING NON-PARAMETER GHB CELLS FROM LAST STRESS PERIOD

      2 GHB CELLS

 REUSING STREAM SEGMENT DATA FROM LAST STRESS PERIOD



            AREAL INFILTRATION RATE
 READING ON UNIT   19 WITH FORMAT: (FREE)              

            1           2           3           4           5           6           7           8           9          10
 ........................................................................................................................
   1   1.0000E-10  2.0000E-10   0.000       0.000       0.000       0.000       0.000       0.000       0.000       0.000    
   2   2.0000E-10  1.0000E-10  2.0000E-10   0.000       0.000      8.0000E-10  8.0000E-10  5.0000E-10   0.000       0.000    
   3    0.000      5.0000E-10  1.0000E-10  1.0000E-10  8.0000E-10  8.0000E-10  5.0000E-10  5.0000E-10   0.000       0.000    
   4   8.0000E-10  5.0000E-10  1.0000E-10  1.0000E-10  1.0000E-10  1.0000E-10  1.0000E-10  1.0000E-10  2.0000E-10   0.000    
   5   8.0000E-10  5.0000E-10  1.0000E-10  1.0000E-10  1.0000E-10  1.0000E-10  1.0000E-10  1.0000E-10  1.0000E-10  1.0000E-10
   6   8.0000E-10  5.0000E-10  5.0000E-10  2.0000E-10  2.0000E-10  1.0000E-10  1.0000E-10  1.0000E-10  1.0000E-10  5.0000E-10
   7   8.0000E-10  5.0000E-10  5.0000E-10  2.0000E-10  2.0000E-10  1.0000E-10  1.0000E-10  2.0000E-10  2.0000E-10   0.000    
   8    0.000      5.0000E-10  5.0000E-10  2.0000E-10  2.0000E-10  1.0000E-10  1.0000E-10  2.0000E-10  5.0000E-10   0.000    
   9    0.000      5.0000E-10  5.0000E-10  2.0000E-10  2.0000E-10  1.0000E-10  1.0000E-10  2.0000E-10  5.0000E-10   0.000    
  10    0.000      5.0000E-10  5.0000E-10  2.0000E-10  2.0000E-10  1.0000E-10  1.0000E-10  2.0000E-10  5.0000E-10  8.0000E-10
  11    0.000      1.0000E-10  1.0000E-10  1.0000E-10  1.0000E-10  1.0000E-10  1.0000E-10  2.0000E-10  5.0000E-10   0.000    
  12   1.0000E-10  1.0000E-10  1.0000E-10  1.0000E-10  1.0000E-10  1.0000E-10  1.0000E-10  1.0000E-10  2.0000E-10   0.000    
  13   1.0000E-10  1.0000E-10  2.0000E-10  2.0000E-10  2.0000E-10  2.0000E-10  2.0000E-10  1.0000E-10  1.0000E-10   0.000    
  14    0.000      2.0000E-10  5.0000E-10  5.0000E-10  5.0000E-10  5.0000E-10  5.0000E-10  2.0000E-10  1.0000E-10   0.000    
  15    0.000       0.000      8.0000E-10  8.0000E-10  8.0000E-10  8.0000E-10   0.000       0.000       0.000       0.000    

                  ET RATE =  5.000000E-08

 USING ET EXTINCTION DEPTH FROM PREVIOUS STRESS PERIOD. CURRENT PERIOD IS:      30

 USING EXTINCTION WATER CONTENT FROM PREVIOUS STRESS PERIOD. CURRENT PERIOD IS:      30

 USING AIR ENTRY PRESSURE FROM PREVIOUS STRESS PERIOD. CURRENT PERIOD IS:      30

 USING ROOT PRESSURE HEAD FROM PREVIOUS STRESS PERIOD. CURRENT PERIOD IS:      30

 USING ROOT ACTIVITY FROM PREVIOUS STRESS PERIOD. CURRENT PERIOD IS:      30

 PROCESSING AG STRESS PERIOD DATA

 READING AG STRESS PERIOD DATA

 READING IRRIGATION SEGMENT

 READING IRRIGATION WELL

 READING SUPPLEMENTAL WELL

 NO IRRPOND OR REUSING IRRPOND DATA FROM LAST STRESS PERIOD

 END PROCESSING AG STRESS PERIOD DATA OPTIONS
 
 SOLVING FOR HEAD 
                                                   Max.-Head-Change                         Max.-Flux-Residual
  Residual-Control   Outer-Iter.   Inner-Iter.     Column Row Layer    Maximum-Head-Change  Column Row Layer    Maximum-Flux-Residual          L2-NORM 
          0                 1           2             4   13     1       0.1977061388E-01       4   13    1         0.1142470474E+01      0.3020327088E+01
          0                 2           2             4   13     1      -0.1902188388E-02       4   13    1        -0.1130219645E+00      0.2982864338E+00
          0                 3           2             4   13     1       0.1275743682E-03       4   13    1         0.7793802078E-02      0.2053704649E-01
          0                 4           1             4   13     1      -0.4953699567E-05       4   13    1        -0.3111871101E-03      0.8190807243E-03

    ------------------------------------------------
       NWT REQUIRED            4 OUTER ITERATIONS 
       AND A TOTAL OF          7 INNER ITERATIONS.
    ------------------------------------------------

 NO OUTPUT CONTROL FOR STRESS PERIOD   30   TIME STEP    1
 
 SOLVING FOR HEAD 
                                                   Max.-Head-Change                         Max.-Flux-Residual
  Residual-Control   Outer-Iter.   Inner-Iter.     Column Row Layer    Maximum-Head-Change  Column Row Layer    Maximum-Flux-Residual          L2-NORM 
          0                 1           2             4   13     1       0.1779373462E-01       4   13    1         0.1027715779E+01      0.2869915292E+01
          0                 2           2             4   13     1      -0.1711989113E-02       4   13    1        -0.1016691075E+00      0.2836941533E+00
          0                 3           2             4   13     1       0.1148190185E-03       4   13    1         0.7010918755E-02      0.1955728670E-01
          0                 4           1             4   13     1      -0.4458209371E-05       4   13    1        -0.2799189733E-03      0.7814448967E-03

    ------------------------------------------------
       NWT REQUIRED            4 OUTER ITERATIONS 
       AND A TOTAL OF          7 INNER ITERATIONS.
    ------------------------------------------------

 NO OUTPUT CONTROL FOR STRESS PERIOD   30   TIME STEP    2
 
 SOLVING FOR HEAD 
                                                   Max.-Head-Change                         Max.-Flux-Residual
  Residual-Control   Outer-Iter.   Inner-Iter.     Column Row Layer    Maximum-Head-Change  Column Row Layer    Maximum-Flux-Residual          L2-NORM 
          0                 1           2             4   13     1       0.1602297099E-01       4   13    1         0.9249560509E+00      0.2733649583E+01
          0                 2           2             4   13     1      -0.1541592201E-02       4   13    1        -0.9150128316E-01      0.2704656591E+00
          0                 3           1             5    6     1      -0.1038023765E-03       4   13    1         0.6309393068E-02      0.1866759465E-01
          0                 4           1             5    6     1       0.4130150971E-05       4   13    1        -0.2507972576E-03      0.7468961188E-03

    ------------------------------------------------
       NWT REQUIRED            4 OUTER ITERATIONS 
       AND A TOTAL OF          6 INNER ITERATIONS.
    ------------------------------------------------

 NO OUTPUT CONTROL FOR STRESS PERIOD   30   TIME STEP    3
 
 SOLVING FOR HEAD 
                                                   Max.-Head-Change                         Max.-Flux-Residual
  Residual-Control   Outer-Iter.   Inner-Iter.     Column Row Layer    Maximum-Head-Change  Column Row Layer    Maximum-Flux-Residual          L2-NORM 
          0                 1           2             5    7     1      -0.1524940336E-01       4   13    1         0.8329018183E+00      0.2609983041E+01
          0                 2           2             5    7     1       0.1483352240E-02       4   13    1        -0.8239320945E-01      0.2584528482E+00
          0                 3           1             5    7     1      -0.1010107921E-03       5    6    1        -0.5701169386E-02      0.1785855091E-01
          0                 4           1             5    7     1       0.4019328797E-05       5    6    1         0.2331638807E-03      0.7157783542E-03

    ------------------------------------------------
       NWT REQUIRED            4 OUTER ITERATIONS 
       AND A TOTAL OF          6 INNER ITERATIONS.
    ------------------------------------------------

 NO OUTPUT CONTROL FOR STRESS PERIOD   30   TIME STEP    4
 
 SOLVING FOR HEAD 
                                                   Max.-Head-Change                         Max.-Flux-Residual
  Residual-Control   Outer-Iter.   Inner-Iter.     Column Row Layer    Maximum-Head-Change  Column Row Layer    Maximum-Flux-Residual          L2-NORM 
          0                 1           2             5    7     1      -0.1494483930E-01       5    7    1        -0.7925453429E+00      0.2497551688E+01
          0                 2           2             5    7     1       0.1453726143E-02       5    7    1         0.7925460189E-01      0.2475203985E+00
          0                 3           1             5    7     1      -0.9899336901E-04       5    7    1        -0.5547823897E-02      0.1712076568E-01

    ------------------------------------------------
       NWT REQUIRED            3 OUTER ITERATIONS 
       AND A TOTAL OF          5 INNER ITERATIONS.
    ------------------------------------------------

 NO OUTPUT CONTROL FOR STRESS PERIOD   30   TIME STEP    5
 
 SOLVING FOR HEAD 
                                                   Max.-Head-Change                         Max.-Flux-Residual
  Residual-Control   Outer-Iter.   Inner-Iter.     Column Row Layer    Maximum-Head-Change  Column Row Layer    Maximum-Flux-Residual          L2-NORM 
          0                 1           2             5    7     1      -0.1464555659E-01       5    7    1        -0.7766994223E+00      0.2395092122E+01
          0                 2           2             5    7     1       0.1424613818E-02       5    7    1         0.7766999003E-01      0.2375519030E+00
          0                 3           1             5    7     1      -0.9701093179E-04       5    7    1        -0.5436901183E-02      0.1644970149E-01

    ------------------------------------------------
       NWT REQUIRED            3 OUTER ITERATIONS 
       AND A TOTAL OF          5 INNER ITERATIONS.
    ------------------------------------------------

 NO OUTPUT CONTROL FOR STRESS PERIOD   30   TIME STEP    6
 
 SOLVING FOR HEAD 
                                                   Max.-Head-Change                         Max.-Flux-Residual
  Residual-Control   Outer-Iter.   Inner-Iter.     Column Row Layer    Maximum-Head-Change  Column Row Layer    Maximum-Flux-Residual          L2-NORM 
          0                 1           2             4    7     1      -0.1451268553E-01       5    7    1        -0.7611489978E+00      0.2301548186E+01
          0                 2           2             4    7     1       0.1411684071E-02       5    7    1         0.7611493027E-01      0.2284414197E+00
          0                 3           1             4    7     1      -0.9613049421E-04       5    7    1        -0.5328047121E-02      0.1583498016E-01

    ------------------------------------------------
       NWT REQUIRED            3 OUTER ITERATIONS 
       AND A TOTAL OF          5 INNER ITERATIONS.
    ------------------------------------------------

 NO OUTPUT CONTROL FOR STRESS PERIOD   30   TIME STEP    7
 
 SOLVING FOR HEAD 
                                                   Max.-Head-Change                         Max.-Flux-Residual
  Residual-Control   Outer-Iter.   Inner-Iter.     Column Row Layer    Maximum-Head-Change  Column Row Layer    Maximum-Flux-Residual          L2-NORM 
          0                 1           2             4    7     1      -0.1438325704E-01       4    7    1        -0.7540567615E+00      0.2215943813E+01
          0                 2           2             4    7     1       0.1399094106E-02       4    7    1         0.7540536834E-01      0.2200949411E+00
          0                 3           1             4    7     1      -0.9527316552E-04       4    7    1        -0.5278380989E-02      0.1526960740E-01

    ------------------------------------------------
       NWT REQUIRED            3 OUTER ITERATIONS 
       AND A TOTAL OF          5 INNER ITERATIONS.
    ------------------------------------------------

 NO OUTPUT CONTROL FOR STRESS PERIOD   30   TIME STEP    8
 
 SOLVING FOR HEAD 
                                                   Max.-Head-Change                         Max.-Flux-Residual
  Residual-Control   Outer-Iter.   Inner-Iter.     Column Row Layer    Maximum-Head-Change  Column Row Layer    Maximum-Flux-Residual          L2-NORM 
          0                 1           2             4    7     1      -0.1424852799E-01       4    7    1        -0.7473311703E+00      0.2137415472E+01
          0                 2           2             4    7     1       0.1385988565E-02       4    7    1         0.7473280378E-01      0.2142584651E+00
          0                 3           1             4    7     1      -0.9438072717E-04       4    7    1        -0.5231301489E-02      0.1486980836E-01

    ------------------------------------------------
       NWT REQUIRED            3 OUTER ITERATIONS 
       AND A TOTAL OF          5 INNER ITERATIONS.
    ------------------------------------------------

 NO OUTPUT CONTROL FOR STRESS PERIOD   30   TIME STEP    9
 
 SOLVING FOR HEAD 
                                                   Max.-Head-Change                         Max.-Flux-Residual
  Residual-Control   Outer-Iter.   Inner-Iter.     Column Row Layer    Maximum-Head-Change  Column Row Layer    Maximum-Flux-Residual          L2-NORM 
          0                 1           2             4    7     1      -0.1410923129E-01       4    7    1        -0.7403381019E+00      0.2064092877E+01
          0                 2           2             4    7     1       0.1373469097E-02       4    7    1         0.7403246958E-01      0.2052830727E+00
          0                 3           1             4    7     1      -0.9453053449E-04       4    7    1        -0.5244802127E-02      0.1429439460E-01

    ------------------------------------------------
       NWT REQUIRED            3 OUTER ITERATIONS 
       AND A TOTAL OF          5 INNER ITERATIONS.
    ------------------------------------------------

 NO OUTPUT CONTROL FOR STRESS PERIOD   30   TIME STEP   10
 
 SOLVING FOR HEAD 
                                                   Max.-Head-Change                         Max.-Flux-Residual
  Residual-Control   Outer-Iter.   Inner-Iter.     Column Row Layer    Maximum-Head-Change  Column Row Layer    Maximum-Flux-Residual          L2-NORM 
          0                 1           2             4    7     1      -0.1396565077E-01       4    7    1        -0.7330933753E+00      0.1994631546E+01
          0                 2           2             4    7     1       0.1349210589E-02       4    7    1         0.7272709570E-01      0.1982427373E+00
          0                 3           1             4    7     1      -0.9187624919E-04       4    7    1        -0.5090899545E-02      0.1378860972E-01

    ------------------------------------------------
       NWT REQUIRED            3 OUTER ITERATIONS 
       AND A TOTAL OF          5 INNER ITERATIONS.
    ------------------------------------------------

 NO OUTPUT CONTROL FOR STRESS PERIOD   30   TIME STEP   11
 
 SOLVING FOR HEAD 
                                                   Max.-Head-Change                         Max.-Flux-Residual
  Residual-Control   Outer-Iter.   Inner-Iter.     Column Row Layer    Maximum-Head-Change  Column Row Layer    Maximum-Flux-Residual          L2-NORM 
          0                 1           2             4    7     1      -0.1383781924E-01       4    7    1        -0.7261281137E+00      0.1931387850E+01
          0                 2           2             4    7     1       0.1346041099E-02       4    7    1         0.7261272599E-01      0.1923109792E+00
          0                 3           1             4    7     1      -0.9166042104E-04       4    7    1        -0.5082893818E-02      0.1338643846E-01

    ------------------------------------------------
       NWT REQUIRED            3 OUTER ITERATIONS 
       AND A TOTAL OF          5 INNER ITERATIONS.
    ------------------------------------------------

 NO OUTPUT CONTROL FOR STRESS PERIOD   30   TIME STEP   12
 
 SOLVING FOR HEAD 
                                                   Max.-Head-Change                         Max.-Flux-Residual
  Residual-Control   Outer-Iter.   Inner-Iter.     Column Row Layer    Maximum-Head-Change  Column Row Layer    Maximum-Flux-Residual          L2-NORM 
          0                 1           2             4    7     1      -0.1369657538E-01       4    7    1        -0.7189913974E+00      0.1873376020E+01
          0                 2           2             4    7     1       0.1332301786E-02       4    7    1         0.7189904473E-01      0.1866276275E+00
          0                 3           1             4    7     1      -0.9072482591E-04       4    7    1        -0.5032936194E-02      0.1299923404E-01

    ------------------------------------------------
       NWT REQUIRED            3 OUTER ITERATIONS 
       AND A TOTAL OF          5 INNER ITERATIONS.
    ------------------------------------------------

 NO OUTPUT CONTROL FOR STRESS PERIOD   30   TIME STEP   13
 
 SOLVING FOR HEAD 
                                                   Max.-Head-Change                         Max.-Flux-Residual
  Residual-Control   Outer-Iter.   Inner-Iter.     Column Row Layer    Maximum-Head-Change  Column Row Layer    Maximum-Flux-Residual          L2-NORM 
          0                 1           2             4    7     1      -0.1355195002E-01       4    7    1        -0.7116532271E+00      0.1819882436E+01
          0                 2           2             4    7     1       0.1318233563E-02       4    7    1         0.7116521930E-01      0.1813507456E+00
          0                 3           1             4    7     1      -0.8976683357E-04       4    7    1        -0.4981568474E-02      0.1264006833E-01

    ------------------------------------------------
       NWT REQUIRED            3 OUTER ITERATIONS 
       AND A TOTAL OF          5 INNER ITERATIONS.
    ------------------------------------------------

 NO OUTPUT CONTROL FOR STRESS PERIOD   30   TIME STEP   14
 
 SOLVING FOR HEAD 
                                                   Max.-Head-Change                         Max.-Flux-Residual
  Residual-Control   Outer-Iter.   Inner-Iter.     Column Row Layer    Maximum-Head-Change  Column Row Layer    Maximum-Flux-Residual          L2-NORM 
          0                 1           2             4    7     1      -0.1340440833E-01       4    7    1        -0.7041397359E+00      0.1770429186E+01
          0                 2           2             4    7     1       0.1303881677E-02       4    7    1         0.7041386293E-01      0.1765192431E+00
          0                 3           1             4    7     1      -0.8878952443E-04       4    7    1        -0.4928973587E-02      0.1230807342E-01

    ------------------------------------------------
       NWT REQUIRED            3 OUTER ITERATIONS 
       AND A TOTAL OF          5 INNER ITERATIONS.
    ------------------------------------------------

 NO OUTPUT CONTROL FOR STRESS PERIOD   30   TIME STEP   15
 
 SOLVING FOR HEAD 
                                                   Max.-Head-Change                         Max.-Flux-Residual
  Residual-Control   Outer-Iter.   Inner-Iter.     Column Row Layer    Maximum-Head-Change  Column Row Layer    Maximum-Flux-Residual          L2-NORM 
          0                 1           2             4    7     1      -0.1325438886E-01       4    7    1        -0.6964750422E+00      0.1724448581E+01
          0                 2           2             4    7     1       0.1289288786E-02       4    7    1         0.6964738732E-01      0.1719954477E+00
          0                 3           1             4    7     1      -0.8779580354E-04       4    7    1        -0.4875320320E-02      0.1199898616E-01

    ------------------------------------------------
       NWT REQUIRED            3 OUTER ITERATIONS 
       AND A TOTAL OF          5 INNER ITERATIONS.
    ------------------------------------------------

 NO OUTPUT CONTROL FOR STRESS PERIOD   30   TIME STEP   16
 
 SOLVING FOR HEAD 
                                                   Max.-Head-Change                         Max.-Flux-Residual
  Residual-Control   Outer-Iter.   Inner-Iter.     Column Row Layer    Maximum-Head-Change  Column Row Layer    Maximum-Flux-Residual          L2-NORM 
          0                 1           2             4    7     1      -0.1310216409E-01       4    7    1        -0.6886745428E+00      0.1681565260E+01
          0                 2           2             4    7     1       0.1274481394E-02       4    7    1         0.6886733210E-01      0.1677697636E+00
          0                 3           1             4    7     1      -0.8678747564E-04       4    7    1        -0.4820716485E-02      0.1170847074E-01

    ------------------------------------------------
       NWT REQUIRED            3 OUTER ITERATIONS 
       AND A TOTAL OF          5 INNER ITERATIONS.
    ------------------------------------------------

 NO OUTPUT CONTROL FOR STRESS PERIOD   30   TIME STEP   17
 
 SOLVING FOR HEAD 
                                                   Max.-Head-Change                         Max.-Flux-Residual
  Residual-Control   Outer-Iter.   Inner-Iter.     Column Row Layer    Maximum-Head-Change  Column Row Layer    Maximum-Flux-Residual          L2-NORM 
          0                 1           2             4    7     1      -0.1294838185E-01       4    7    1        -0.6807743909E+00      0.1641418182E+01
          0                 2           2             4    7     1       0.1259522514E-02       4    7    1         0.6807731248E-01      0.1638085694E+00
          0                 3           1             4    7     1      -0.8576883222E-04       4    7    1        -0.4765415132E-02      0.1143598335E-01

    ------------------------------------------------
       NWT REQUIRED            3 OUTER ITERATIONS 
       AND A TOTAL OF          5 INNER ITERATIONS.
    ------------------------------------------------

 NO OUTPUT CONTROL FOR STRESS PERIOD   30   TIME STEP   18
 
 SOLVING FOR HEAD 
                                                   Max.-Head-Change                         Max.-Flux-Residual
  Residual-Control   Outer-Iter.   Inner-Iter.     Column Row Layer    Maximum-Head-Change  Column Row Layer    Maximum-Flux-Residual          L2-NORM 
          0                 1           2             4    7     1      -0.1279311252E-01       4    7    1        -0.6727788075E+00      0.1603716703E+01
          0                 2           2             4    7     1       0.1244418991E-02       4    7    1         0.6727775049E-01      0.1600848471E+00
          0                 3           1             4    7     1      -0.8474033894E-04       4    7    1        -0.4709445802E-02      0.1117978430E-01

    ------------------------------------------------
       NWT REQUIRED            3 OUTER ITERATIONS 
       AND A TOTAL OF          5 INNER ITERATIONS.
    ------------------------------------------------

 NO OUTPUT CONTROL FOR STRESS PERIOD   30   TIME STEP   19
 
 SOLVING FOR HEAD 
                                                   Max.-Head-Change                         Max.-Flux-Residual
  Residual-Control   Outer-Iter.   Inner-Iter.     Column Row Layer    Maximum-Head-Change  Column Row Layer    Maximum-Flux-Residual          L2-NORM 
          0                 1           2             4    7     1      -0.1263668340E-01       4    7    1        -0.6647061258E+00      0.1568197327E+01
          0                 2           2             4    7     1       0.1229202664E-02       4    7    1         0.6647047937E-01      0.1565720241E+00
          0                 3           1             4    7     1      -0.8370416359E-04       4    7    1        -0.4652936817E-02      0.1093761444E-01

    ------------------------------------------------
       NWT REQUIRED            3 OUTER ITERATIONS 
       AND A TOTAL OF          5 INNER ITERATIONS.
    ------------------------------------------------

 NO OUTPUT CONTROL FOR STRESS PERIOD   30   TIME STEP   20
 
 SOLVING FOR HEAD 
                                                   Max.-Head-Change                         Max.-Flux-Residual
  Residual-Control   Outer-Iter.   Inner-Iter.     Column Row Layer    Maximum-Head-Change  Column Row Layer    Maximum-Flux-Residual          L2-NORM 
          0                 1           2             4    7     1      -0.1247953301E-01       4    7    1        -0.6565806571E+00      0.1534646125E+01
          0                 2           2             4    7     1       0.1213916185E-02       4    7    1         0.6565793018E-01      0.1532504979E+00
          0                 3           1             4    7     1      -0.8266321170E-04       4    7    1        -0.4596058382E-02      0.1070814126E-01

    ------------------------------------------------
       NWT REQUIRED            3 OUTER ITERATIONS 
       AND A TOTAL OF          5 INNER ITERATIONS.
    ------------------------------------------------

 NO OUTPUT CONTROL FOR STRESS PERIOD   30   TIME STEP   21
 
 SOLVING FOR HEAD 
                                                   Max.-Head-Change                         Max.-Flux-Residual
  Residual-Control   Outer-Iter.   Inner-Iter.     Column Row Layer    Maximum-Head-Change  Column Row Layer    Maximum-Flux-Residual          L2-NORM 
          0                 1           2             4    7     1      -0.1232193060E-01       4    7    1        -0.6484177961E+00      0.1502860116E+01
          0                 2           2             4    7     1       0.1198531696E-02       4    7    1         0.6484164234E-01      0.1499940292E+00
          0                 3           1             4    7     1      -0.8161558516E-04       4    7    1        -0.4538918233E-02      0.1048242750E-01

    ------------------------------------------------
       NWT REQUIRED            3 OUTER ITERATIONS 
       AND A TOTAL OF          5 INNER ITERATIONS.
    ------------------------------------------------

 NO OUTPUT CONTROL FOR STRESS PERIOD   30   TIME STEP   22
 
 SOLVING FOR HEAD 
                                                   Max.-Head-Change                         Max.-Flux-Residual
  Residual-Control   Outer-Iter.   Inner-Iter.     Column Row Layer    Maximum-Head-Change  Column Row Layer    Maximum-Flux-Residual          L2-NORM 
          0                 1           2             4    7     1      -0.1216433421E-01       4    7    1        -0.6402343759E+00      0.1472774084E+01
          0                 2           2             4    7     1       0.1183255926E-02       4    7    1         0.6402329935E-01      0.1471171285E+00
          0                 3           1             4    7     1      -0.8057536175E-04       4    7    1        -0.4481634194E-02      0.1028378674E-01

    ------------------------------------------------
       NWT REQUIRED            3 OUTER ITERATIONS 
       AND A TOTAL OF          5 INNER ITERATIONS.
    ------------------------------------------------

 NO OUTPUT CONTROL FOR STRESS PERIOD   30   TIME STEP   23
 
 SOLVING FOR HEAD 
                                                   Max.-Head-Change                         Max.-Flux-Residual
  Residual-Control   Outer-Iter.   Inner-Iter.     Column Row Layer    Maximum-Head-Change  Column Row Layer    Maximum-Flux-Residual          L2-NORM 
          0                 1           2             4    7     1      -0.1200666186E-01       4    7    1        -0.6320381875E+00      0.1444218791E+01
          0                 2           2             4    7     1       0.1167918699E-02       4    7    1         0.6320367989E-01      0.1442824382E+00
          0                 3           1             4    7     1      -0.7953095385E-04       4    7    1        -0.4424260819E-02      0.1008701723E-01

    ------------------------------------------------
       NWT REQUIRED            3 OUTER ITERATIONS 
       AND A TOTAL OF          5 INNER ITERATIONS.
    ------------------------------------------------

 NO OUTPUT CONTROL FOR STRESS PERIOD   30   TIME STEP   24
 
 SOLVING FOR HEAD 
                                                   Max.-Head-Change                         Max.-Flux-Residual
  Residual-Control   Outer-Iter.   Inner-Iter.     Column Row Layer    Maximum-Head-Change  Column Row Layer    Maximum-Flux-Residual          L2-NORM 
          0                 1           2             4    7     1      -0.1184930669E-01       4    7    1        -0.6238482782E+00      0.1416990818E+01
          0                 2           2             4    7     1       0.1152612330E-02       4    7    1         0.6238468872E-01      0.1415779777E+00
          0                 3           1             4    7     1      -0.7848864677E-04       4    7    1        -0.4366931418E-02      0.9899159951E-02

    ------------------------------------------------
       NWT REQUIRED            3 OUTER ITERATIONS 
       AND A TOTAL OF          5 INNER ITERATIONS.
    ------------------------------------------------

 NO OUTPUT CONTROL FOR STRESS PERIOD   30   TIME STEP   25
 
 SOLVING FOR HEAD 
                                                   Max.-Head-Change                         Max.-Flux-Residual
  Residual-Control   Outer-Iter.   Inner-Iter.     Column Row Layer    Maximum-Head-Change  Column Row Layer    Maximum-Flux-Residual          L2-NORM 
          0                 1           2             4    7     1      -0.1169245104E-01       4    7    1        -0.6156748187E+00      0.1390985090E+01
          0                 2           2             4    7     1       0.1137354556E-02       4    7    1         0.6156734289E-01      0.1389934377E+00
          0                 3           1             4    7     1      -0.7744964921E-04       4    7    1        -0.4309717194E-02      0.9719732245E-02

    ------------------------------------------------
       NWT REQUIRED            3 OUTER ITERATIONS 
       AND A TOTAL OF          5 INNER ITERATIONS.
    ------------------------------------------------

 NO OUTPUT CONTROL FOR STRESS PERIOD   30   TIME STEP   26
 
 SOLVING FOR HEAD 
                                                   Max.-Head-Change                         Max.-Flux-Residual
  Residual-Control   Outer-Iter.   Inner-Iter.     Column Row Layer    Maximum-Head-Change  Column Row Layer    Maximum-Flux-Residual          L2-NORM 
          0                 1           2             4    7     1      -0.1153613012E-01       4    7    1        -0.6075199224E+00      0.1366101453E+01
          0                 2           2             4    7     1       0.1122148801E-02       4    7    1         0.6075185370E-01      0.1365184661E+00
          0                 3           1             4    7     1      -0.7641419359E-04       4    7    1        -0.4252632909E-02      0.9547983820E-02

    ------------------------------------------------
       NWT REQUIRED            3 OUTER ITERATIONS 
       AND A TOTAL OF          5 INNER ITERATIONS.
    ------------------------------------------------

 NO OUTPUT CONTROL FOR STRESS PERIOD   30   TIME STEP   27
 
 SOLVING FOR HEAD 
                                                   Max.-Head-Change                         Max.-Flux-Residual
  Residual-Control   Outer-Iter.   Inner-Iter.     Column Row Layer    Maximum-Head-Change  Column Row Layer    Maximum-Flux-Residual          L2-NORM 
          0                 1           2             4    7     1      -0.1138063481E-01       4    7    1        -0.5994000953E+00      0.1342256829E+01
          0                 2           2             4    7     1       0.1107023360E-02       4    7    1         0.5993987172E-01      0.1341454542E+00
          0                 3           1             4    7     1      -0.7538420666E-04       4    7    1        -0.4195794124E-02      0.9382907403E-02

    ------------------------------------------------
       NWT REQUIRED            3 OUTER ITERATIONS 
       AND A TOTAL OF          5 INNER ITERATIONS.
    ------------------------------------------------

 NO OUTPUT CONTROL FOR STRESS PERIOD   30   TIME STEP   28
 
 SOLVING FOR HEAD 
                                                   Max.-Head-Change                         Max.-Flux-Residual
  Residual-Control   Outer-Iter.   Inner-Iter.     Column Row Layer    Maximum-Head-Change  Column Row Layer    Maximum-Flux-Residual          L2-NORM 
          0                 1           2             4    7     1      -0.1122597215E-01       4    7    1        -0.5913157389E+00      0.1319377223E+01
          0                 2           2             4    7     1       0.1091978917E-02       4    7    1         0.5913143708E-01      0.1318676592E+00
          0                 3           1             4    7     1      -0.7435973587E-04       4    7    1        -0.4139203677E-02      0.9224298467E-02

    ------------------------------------------------
       NWT REQUIRED            3 OUTER ITERATIONS 
       AND A TOTAL OF          5 INNER ITERATIONS.
    ------------------------------------------------

 NO OUTPUT CONTROL FOR STRESS PERIOD   30   TIME STEP   29
 
 SOLVING FOR HEAD 
                                                   Max.-Head-Change                         Max.-Flux-Residual
  Residual-Control   Outer-Iter.   Inner-Iter.     Column Row Layer    Maximum-Head-Change  Column Row Layer    Maximum-Flux-Residual          L2-NORM 
          0                 1           2             4    7     1      -0.1107253793E-01       4    7    1        -0.5832892372E+00      0.1297392621E+01
          0                 2           2             4    7     1       0.1077053969E-02       4    7    1         0.5832878807E-01      0.1296778550E+00
          0                 3           1             4    7     1      -0.7334340250E-04       4    7    1        -0.4083018229E-02      0.9071879669E-02

    ------------------------------------------------
       NWT REQUIRED            3 OUTER ITERATIONS 
       AND A TOTAL OF          5 INNER ITERATIONS.
    ------------------------------------------------

 NO OUTPUT CONTROL FOR STRESS PERIOD   30   TIME STEP   30



 STREAM LISTING     PERIOD     30   STEP       30

 LAYER ROW COL. STREAM  RCH.  FLOW INTO     FLOW TO   FLOW OUT OF   OVRLND.     DIRECT     STREAM       STREAM     STREAM     STREAM   STREAMBED  STREAMBED
                SEG.NO.  NO.  STRM. RCH.    AQUIFER    STRM. RCH.    RUNOFF     PRECIP       ET          HEAD       DEPTH      WIDTH   CONDCTNC.   GRADIENT

   1    1    1     1     1    7.4248E+01  4.1988E-01   7.3828E+01  0.000E+00  0.000E+00  0.000E+00  1.09474E+03  1.690E+00  1.990E+01  8.954E-02  1.563E+00
   1    2    2     1     2    7.3828E+01  6.5043E-01   7.3177E+01  0.000E+00  0.000E+00  0.000E+00  1.08974E+03  1.684E+00  1.984E+01  1.389E-01  1.561E+00
   1    3    3     1     3    7.3177E+01  5.5489E-01   7.2623E+01  0.000E+00  0.000E+00  0.000E+00  1.08410E+03  1.677E+00  1.977E+01  1.186E-01  1.559E+00
   1    3    4     1     4    7.2623E+01  5.1112E-01   7.2111E+01  0.000E+00  0.000E+00  0.000E+00  1.07908E+03  1.671E+00  1.972E+01  1.094E-01  1.557E+00
   1    4    5     2     1    7.0111E+01  4.0856E-01   6.9703E+01  0.000E+00  0.000E+00  0.000E+00  1.07417E+03  2.238E+00  1.200E+01  7.800E-02  1.746E+00
   1    5    6     2     2    6.9703E+01  3.1386E-01   6.9389E+01  0.000E+00  0.000E+00  0.000E+00  1.06874E+03  2.231E+00  1.200E+01  6.000E-02  1.744E+00
   1    6    6     2     3    6.9389E+01  3.1350E-01   6.9075E+01  0.000E+00  0.000E+00  0.000E+00  1.06402E+03  2.225E+00  1.200E+01  6.000E-02  1.742E+00
   1    7    6     2     4    6.9075E+01  3.1314E-01   6.8762E+01  0.000E+00  0.000E+00  0.000E+00  1.05929E+03  2.219E+00  1.200E+01  6.000E-02  1.740E+00
   1    8    6     2     5    6.8762E+01  3.1277E-01   6.8450E+01  0.000E+00  0.000E+00  0.000E+00  1.05457E+03  2.213E+00  1.200E+01  6.000E-02  1.738E+00
   1    3    5     3     1    2.0000E+00  2.8252E-01   1.7175E+00  0.000E+00  0.000E+00  0.000E+00  1.07555E+03  1.909E+00  9.636E+00  7.227E-02  1.955E+00
   1    3    6     3     2    1.7175E+00  2.4905E-01   1.4684E+00  0.000E+00  0.000E+00  0.000E+00  1.07264E+03  1.727E+00  8.909E+00  6.682E-02  1.864E+00
   1    3    7     3     3    1.4684E+00  1.9718E-01   1.2712E+00  0.000E+00  0.000E+00  0.000E+00  1.06987E+03  1.555E+00  8.218E+00  5.547E-02  1.777E+00
   1    4    8     3     4    1.2712E+00  2.2567E-01   1.0456E+00  0.000E+00  0.000E+00  0.000E+00  1.06682E+03  1.364E+00  7.455E+00  6.709E-02  1.682E+00
   1    5    8     3     5    1.0456E+00  1.5790E-01   8.8768E-01  0.000E+00  0.000E+00  0.000E+00  1.06362E+03  1.164E+00  6.655E+00  4.991E-02  1.582E+00
   1    6    8     3     6    8.8768E-01  5.5980E-02   8.3170E-01  0.000E+00  0.000E+00  0.000E+00  1.06158E+03  1.036E+00  6.145E+00  1.844E-02  1.518E+00
   1    5   10     4     1    1.0000E+01  9.0919E-02   9.9091E+00  0.000E+00  0.000E+00  0.000E+00  1.07836E+03  6.368E-01  1.000E+01  2.500E-02  1.212E+00
   1    5    9     4     2    9.9091E+00  1.8158E-01   9.7275E+00  0.000E+00  0.000E+00  0.000E+00  1.07154E+03  6.315E-01  1.000E+01  5.000E-02  1.211E+00
   1    6    8     4     3    9.7275E+00  1.2689E-01   9.6006E+00  0.000E+00  0.000E+00  0.000E+00  1.06381E+03  6.256E-01  1.000E+01  3.500E-02  1.209E+00
   1    6    8     5     1    1.0432E+01  2.2686E-01   1.0205E+01  0.000E+00  0.000E+00  0.000E+00  1.05868E+03  6.790E-01  1.542E+01  6.166E-02  1.226E+00
   1    7    7     5     2    1.0205E+01  2.7894E-01   9.9265E+00  0.000E+00  0.000E+00  0.000E+00  1.05417E+03  6.732E-01  1.519E+01  7.594E-02  1.224E+00
   1    8    7     5     3    9.9265E+00  1.9221E-01   9.7343E+00  0.000E+00  0.000E+00  0.000E+00  1.04992E+03  6.676E-01  1.497E+01  5.241E-02  1.223E+00
   1    8    6     5     4    9.7343E+00  1.3577E-01   9.5985E+00  0.000E+00  0.000E+00  0.000E+00  1.04691E+03  6.637E-01  1.482E+01  3.706E-02  1.221E+00
   1    9    6     6     1    7.8048E+01  3.2488E-01   7.7723E+01  0.000E+00  0.000E+00  0.000E+00  1.04514E+03  2.415E+00  1.200E+01  6.000E-02  1.805E+00
   1   10    7     6     2    7.7723E+01  3.2451E-01   7.7399E+01  0.000E+00  0.000E+00  0.000E+00  1.04059E+03  2.409E+00  1.200E+01  6.000E-02  1.803E+00
   1   11    7     6     3    7.7399E+01  3.2415E-01   7.7075E+01  0.000E+00  0.000E+00  0.000E+00  1.03604E+03  2.403E+00  1.200E+01  6.000E-02  1.801E+00
   1   12    7     6     4    7.7075E+01  3.2379E-01   7.6751E+01  0.000E+00  0.000E+00  0.000E+00  1.03149E+03  2.396E+00  1.200E+01  6.000E-02  1.799E+00
   1   13    7     6     5    7.6751E+01  3.5301E-02   7.6715E+01  0.000E+00  0.000E+00  0.000E+00  1.02830E+03  2.393E+00  1.200E+01  2.400E-02  4.903E-01
   1   14    9     7     1    1.5000E+02  1.3512E+00   1.4865E+02  0.000E+00  0.000E+00  0.000E+00  1.03987E+03  2.288E+00  5.529E+01  5.593E-01  8.053E-01
   1   13    8     7     2    1.4865E+02  1.9063E+00   1.4674E+02  0.000E+00  0.000E+00  0.000E+00  1.03478E+03  2.279E+00  5.526E+01  6.148E-01  1.034E+00
   1   13    7     7     3    1.4674E+02  1.5958E+00   1.4515E+02  0.000E+00  0.000E+00  0.000E+00  1.02969E+03  2.270E+00  5.521E+01  5.584E-01  9.526E-01
   1   13    6     8     1    2.2186E+02  1.2723E+00   2.2059E+02  0.000E+00  0.000E+00  0.000E+00  1.02513E+03  3.259E+00  4.725E+01  4.815E-01  8.808E-01
   1   13    5     8     2    2.2059E+02  4.3422E-01   2.2016E+02  0.000E+00  0.000E+00  0.000E+00  1.01888E+03  3.254E+00  4.718E+01  4.808E-01  3.010E-01
   1   13    4     8     3    2.2016E+02 -1.7094E+00   2.2187E+02  0.000E+00  0.000E+00  0.000E+00  1.01263E+03  3.257E+00  4.723E+01  4.813E+00 -1.184E-01
   1   13    3     8     4    2.2187E+02 -3.1928E+00   2.2506E+02  0.000E+00  0.000E+00  0.000E+00  1.00640E+03  3.271E+00  4.743E+01  4.833E+00 -2.202E-01
   1   13    2     8     5    2.2506E+02 -2.3797E+00   2.2744E+02  0.000E+00  0.000E+00  0.000E+00  1.00016E+03  3.286E+00  4.765E+01  4.856E+00 -1.634E-01
   1   13    1     8     6    2.2744E+02 -1.8392E+00   2.2928E+02  0.000E+00  0.000E+00  0.000E+00  9.95173E+02  3.298E+00  4.782E+01  2.924E+00 -2.097E-01
   1    8    6     9     1    0.0000E+00  0.0000E+00   0.0000E+00  0.000E+00  0.000E+00  0.000E+00  1.07875E+03  0.000E+00  4.000E+00  0.000E+00  1.000E+00
   1    8    5     9     2    0.0000E+00  0.0000E+00   0.0000E+00  0.000E+00  0.000E+00  0.000E+00  1.07825E+03  0.000E+00  4.000E+00  0.000E+00  1.000E+00





UNSATURATED ZONE PACKAGE VOLUMETRIC BUDGET FOR  TIME STEP    30 STRESS PERIOD   30
  ------------------------------------------------------------------------------



     CUMULATIVE VOLUMES      L**3       RATES FOR THIS TIME STEP      L**3/T
     ------------------                 ------------------------

           IN:                                      IN:
           ---                                      ---
        INFILTRATION =   892136861.3806          INFILTRATION =           8.3175

          OUT:                                     OUT:
          ----                                     ----
              UZF ET =   891329942.5605                UZF ET =           8.3175
        UZF RECHARGE =       73224.0000          UZF RECHARGE =       0.0000E+00

            IN - OUT =      733694.8200              IN - OUT =       0.0000E+00

          STORAGE:                                 STORAGE:
          --------                                 --------
      STORAGE CHANGE =      733694.8611        STORAGE CHANGE =       1.6599E-16

 PERCENT DISCREPANCY IS DIFFERENCE BETWEEN IN-OUT MINUS CHANGE IN STORAGE
 DIVIDED BY THE AVERAGE OF IN AND OUT TIMES 100

 PERCENT DISCREPANCY =           0.00     PERCENT DISCREPANCY =           0.00






1
  VOLUMETRIC BUDGET FOR AGRICULTURAL FIELDS AT  END OF TIME STEP   30, STRESS PERIOD  30
  ------------------------------------------------------------------------------

     CUMULATIVE VOLUMES      L**3       RATES FOR THIS TIME STEP      L**3/T
     ------------------                 ------------------------

           IN:                                      IN:
           ---                                      ---
               AG WELLS  =   827422400.0000                 AG WELLS  =           7.4700
      DIVERSION SEGMENTS =           0.0000        DIVERSION SEGMENTS =           0.0000
       IRRIGATION PONDS  =           0.0000         IRRIGATION PONDS  =           0.0000
           GW IRRIGATION =           0.0000             GW IRRIGATION =           0.0000
           SW IRRIGATION =           0.0000             SW IRRIGATION =           0.0000
        SYSTEM LOSSES GW =           0.0000          SYSTEM LOSSES GW =           0.0000
        SYSTEM LOSSES SW =           0.0000          SYSTEM LOSSES SW =           0.0000

                TOTAL IN =   827422400.0000                  TOTAL IN =           7.4700

          OUT:                                     OUT:
          ----                                     ----
               AG WELLS  =           0.0000                 AG WELLS  =           0.0000
      DIVERSION SEGMENTS =           0.0000        DIVERSION SEGMENTS =           0.0000
       IRRIGATION PONDS  =           0.0000         IRRIGATION PONDS  =           0.0000
           GW IRRIGATION =   827422400.0000             GW IRRIGATION =           7.4700
           SW IRRIGATION =           0.0000             SW IRRIGATION =           0.0000
        SYSTEM LOSSES GW =           0.0000          SYSTEM LOSSES GW =           0.0000
        SYSTEM LOSSES SW =           0.0000          SYSTEM LOSSES SW =           0.0000

               TOTAL OUT =   827422400.0000                 TOTAL OUT =           7.4700

                IN - OUT =           0.0000                  IN - OUT =           0.0000

     PERCENT DISCREPANCY =           0.00         PERCENT DISCREPANCY =           0.00



1
  VOLUMETRIC BUDGET FOR ENTIRE MODEL AT END OF TIME STEP   30, STRESS PERIOD  30
  ------------------------------------------------------------------------------

     CUMULATIVE VOLUMES      L**3       RATES FOR THIS TIME STEP      L**3/T
     ------------------                 ------------------------

           IN:                                      IN:
           ---                                      ---
             STORAGE     =  1169140736.0000               STORAGE     =           5.1553
       CONSTANT HEAD     =           0.0000         CONSTANT HEAD     =           0.0000
     HEAD DEP BOUNDS     =    21832218.0000       HEAD DEP BOUNDS     =           0.2868
      STREAM LEAKAGE     =   930505344.0000        STREAM LEAKAGE     =          14.0921
        UZF RECHARGE     =       73223.9531          UZF RECHARGE     =           0.0000
               GW ET     =           0.0000                 GW ET     =           0.0000
     SURFACE LEAKAGE     =           0.0000       SURFACE LEAKAGE     =           0.0000
           AG WELLS      =           0.0000             AG WELLS      =           0.0000

                TOTAL IN =  2121551488.0000                  TOTAL IN =          19.5342

          OUT:                                     OUT:
          ----                                     ----
             STORAGE     =   475436768.0000               STORAGE     =           2.5051
       CONSTANT HEAD     =           0.0000         CONSTANT HEAD     =           0.0000
     HEAD DEP BOUNDS     =    22300038.0000       HEAD DEP BOUNDS     =           0.2965
      STREAM LEAKAGE     =   788893120.0000        STREAM LEAKAGE     =           9.1210
        UZF RECHARGE     =           0.0000          UZF RECHARGE     =           0.0000
               GW ET     =     7502758.5000                 GW ET     =           0.1409
     SURFACE LEAKAGE     =           0.0000       SURFACE LEAKAGE     =           0.0000
           AG WELLS      =   827422400.0000             AG WELLS      =           7.4700

               TOTAL OUT =  2121554944.0000                 TOTAL OUT =          19.5335

                IN - OUT =       -3456.0000                  IN - OUT =       7.6103E-04

     PERCENT DISCREPANCY =          -0.00         PERCENT DISCREPANCY =           0.00






         TIME SUMMARY AT END OF TIME STEP   30 IN STRESS PERIOD   30
                    SECONDS     MINUTES      HOURS       DAYS        YEARS
                    -----------------------------------------------------------
   TIME STEP LENGTH  87667.      1461.1      24.352      1.0147     2.77799E-03
 STRESS PERIOD TIME 2.63000E+06  43833.      730.56      30.440     8.33397E-02
         TOTAL TIME 7.63565E+07 1.27261E+06  21210.      883.76      2.4196    
1
1
                            STRESS PERIOD NO.   31, LENGTH =   2630000.    
                            -----------------------------------------------

                              NUMBER OF TIME STEPS =    30

                               MULTIPLIER FOR DELT =     1.000

                            INITIAL TIME STEP SIZE =   87666.66    

 REUSING NON-PARAMETER GHB CELLS FROM LAST STRESS PERIOD

      2 GHB CELLS

 REUSING STREAM SEGMENT DATA FROM LAST STRESS PERIOD



            AREAL INFILTRATION RATE
 READING ON UNIT   19 WITH FORMAT: (FREE)              

            1           2           3           4           5           6           7           8           9          10
 ........................................................................................................................
   1   1.0000E-10  2.0000E-10   0.000       0.000       0.000       0.000       0.000       0.000       0.000       0.000    
   2   2.0000E-10  1.0000E-10  2.0000E-10   0.000       0.000      8.0000E-10  8.0000E-10  5.0000E-10   0.000       0.000    
   3    0.000      5.0000E-10  1.0000E-10  1.0000E-10  8.0000E-10  8.0000E-10  5.0000E-10  5.0000E-10   0.000       0.000    
   4   8.0000E-10  5.0000E-10  1.0000E-10  1.0000E-10  1.0000E-10  1.0000E-10  1.0000E-10  1.0000E-10  2.0000E-10   0.000    
   5   8.0000E-10  5.0000E-10  1.0000E-10  1.0000E-10  1.0000E-10  1.0000E-10  1.0000E-10  1.0000E-10  1.0000E-10  1.0000E-10
   6   8.0000E-10  5.0000E-10  5.0000E-10  2.0000E-10  2.0000E-10  1.0000E-10  1.0000E-10  1.0000E-10  1.0000E-10  5.0000E-10
   7   8.0000E-10  5.0000E-10  5.0000E-10  2.0000E-10  2.0000E-10  1.0000E-10  1.0000E-10  2.0000E-10  2.0000E-10   0.000    
   8    0.000      5.0000E-10  5.0000E-10  2.0000E-10  2.0000E-10  1.0000E-10  1.0000E-10  2.0000E-10  5.0000E-10   0.000    
   9    0.000      5.0000E-10  5.0000E-10  2.0000E-10  2.0000E-10  1.0000E-10  1.0000E-10  2.0000E-10  5.0000E-10   0.000    
  10    0.000      5.0000E-10  5.0000E-10  2.0000E-10  2.0000E-10  1.0000E-10  1.0000E-10  2.0000E-10  5.0000E-10  8.0000E-10
  11    0.000      1.0000E-10  1.0000E-10  1.0000E-10  1.0000E-10  1.0000E-10  1.0000E-10  2.0000E-10  5.0000E-10   0.000    
  12   1.0000E-10  1.0000E-10  1.0000E-10  1.0000E-10  1.0000E-10  1.0000E-10  1.0000E-10  1.0000E-10  2.0000E-10   0.000    
  13   1.0000E-10  1.0000E-10  2.0000E-10  2.0000E-10  2.0000E-10  2.0000E-10  2.0000E-10  1.0000E-10  1.0000E-10   0.000    
  14    0.000      2.0000E-10  5.0000E-10  5.0000E-10  5.0000E-10  5.0000E-10  5.0000E-10  2.0000E-10  1.0000E-10   0.000    
  15    0.000       0.000      8.0000E-10  8.0000E-10  8.0000E-10  8.0000E-10   0.000       0.000       0.000       0.000    

                  ET RATE =  1.500000E-07

 USING ET EXTINCTION DEPTH FROM PREVIOUS STRESS PERIOD. CURRENT PERIOD IS:      31

 USING EXTINCTION WATER CONTENT FROM PREVIOUS STRESS PERIOD. CURRENT PERIOD IS:      31

 USING AIR ENTRY PRESSURE FROM PREVIOUS STRESS PERIOD. CURRENT PERIOD IS:      31

 USING ROOT PRESSURE HEAD FROM PREVIOUS STRESS PERIOD. CURRENT PERIOD IS:      31

 USING ROOT ACTIVITY FROM PREVIOUS STRESS PERIOD. CURRENT PERIOD IS:      31

 PROCESSING AG STRESS PERIOD DATA

 READING AG STRESS PERIOD DATA

 READING IRRIGATION SEGMENT

 READING IRRIGATION WELL

 READING SUPPLEMENTAL WELL

 NO IRRPOND OR REUSING IRRPOND DATA FROM LAST STRESS PERIOD

 END PROCESSING AG STRESS PERIOD DATA OPTIONS
 
 SOLVING FOR HEAD 
                                                   Max.-Head-Change                         Max.-Flux-Residual
  Residual-Control   Outer-Iter.   Inner-Iter.     Column Row Layer    Maximum-Head-Change  Column Row Layer    Maximum-Flux-Residual          L2-NORM 
          0                 1           2             4    7     1      -0.5880455948E-01       4    7    1        -0.3075304533E+01      0.7270732605E+01
          0                 2           2             4    7     1       0.5720051537E-02       4    7    1         0.3075286336E+00      0.7270460170E+00
          0                 3           2             4    7     1      -0.3895145836E-03       4    7    1        -0.2152703087E-01      0.5089153226E-01
          0                 4           1             4    7     1       0.1549914841E-04       4    7    1         0.8804567133E-03      0.2081281892E-02

    ------------------------------------------------
       NWT REQUIRED            4 OUTER ITERATIONS 
       AND A TOTAL OF          7 INNER ITERATIONS.
    ------------------------------------------------

 NO OUTPUT CONTROL FOR STRESS PERIOD   31   TIME STEP    1
 
 SOLVING FOR HEAD 
                                                   Max.-Head-Change                         Max.-Flux-Residual
  Residual-Control   Outer-Iter.   Inner-Iter.     Column Row Layer    Maximum-Head-Change  Column Row Layer    Maximum-Flux-Residual          L2-NORM 
          0                 1           2             4    7     1      -0.5840179156E-01       4    7    1        -0.3055405015E+01      0.7145372118E+01
          0                 2           2             4    7     1       0.5680870727E-02       4    7    1         0.3055385102E+00      0.7144631972E+00
          0                 3           2             4    7     1      -0.3868465400E-03       4    7    1        -0.2138772381E-01      0.5000647983E-01
          0                 4           1             4    7     1       0.1539298441E-04       4    7    1         0.8747590425E-03      0.2044918104E-02

    ------------------------------------------------
       NWT REQUIRED            4 OUTER ITERATIONS 
       AND A TOTAL OF          7 INNER ITERATIONS.
    ------------------------------------------------

 NO OUTPUT CONTROL FOR STRESS PERIOD   31   TIME STEP    2
 
 SOLVING FOR HEAD 
                                                   Max.-Head-Change                         Max.-Flux-Residual
  Residual-Control   Outer-Iter.   Inner-Iter.     Column Row Layer    Maximum-Head-Change  Column Row Layer    Maximum-Flux-Residual          L2-NORM 
          0                 1           2             4    7     1      -0.5798113944E-01       4    7    1        -0.3034477084E+01      0.7016930636E+01
          0                 2           2             4    7     1       0.5639950566E-02       4    7    1         0.3034455654E+00      0.7016354555E+00
          0                 3           2             4    7     1      -0.3840600498E-03       4    7    1        -0.2124121903E-01      0.4910993102E-01
          0                 4           1             4    7     1       0.1528210709E-04       4    7    1         0.8687669606E-03      0.2008298761E-02

    ------------------------------------------------
       NWT REQUIRED            4 OUTER ITERATIONS 
       AND A TOTAL OF          7 INNER ITERATIONS.
    ------------------------------------------------

 NO OUTPUT CONTROL FOR STRESS PERIOD   31   TIME STEP    3
 
 SOLVING FOR HEAD 
                                                   Max.-Head-Change                         Max.-Flux-Residual
  Residual-Control   Outer-Iter.   Inner-Iter.     Column Row Layer    Maximum-Head-Change  Column Row Layer    Maximum-Flux-Residual          L2-NORM 
          0                 1           2             4    7     1      -0.5754444426E-01       4    7    1        -0.3012621872E+01      0.6895541312E+01
          0                 2           2             4    7     1       0.5597470123E-02       4    7    1         0.3012599106E+00      0.6895086361E+00
          0                 3           2             4    7     1      -0.3811673080E-03       4    7    1        -0.2108822439E-01      0.4826216105E-01
          0                 4           1             4    7     1       0.1516700229E-04       4    7    1         0.8625094838E-03      0.1973725252E-02

    ------------------------------------------------
       NWT REQUIRED            4 OUTER ITERATIONS 
       AND A TOTAL OF          7 INNER ITERATIONS.
    ------------------------------------------------

 NO OUTPUT CONTROL FOR STRESS PERIOD   31   TIME STEP    4
 
 SOLVING FOR HEAD 
                                                   Max.-Head-Change                         Max.-Flux-Residual
  Residual-Control   Outer-Iter.   Inner-Iter.     Column Row Layer    Maximum-Head-Change  Column Row Layer    Maximum-Flux-Residual          L2-NORM 
          0                 1           2             4    7     1      -0.5709329862E-01       4    7    1        -0.2989927504E+01      0.6780350082E+01
          0                 2           2             4    7     1       0.5553584292E-02       4    7    1         0.2989903572E+00      0.6779988645E+00
          0                 3           2             4    7     1      -0.3781788618E-03       4    7    1        -0.2092935669E-01      0.4745726108E-01
          0                 4           1             4    7     1       0.1504808906E-04       4    7    1         0.8560117735E-03      0.1940825852E-02

    ------------------------------------------------
       NWT REQUIRED            4 OUTER ITERATIONS 
       AND A TOTAL OF          7 INNER ITERATIONS.
    ------------------------------------------------

 NO OUTPUT CONTROL FOR STRESS PERIOD   31   TIME STEP    5
 
 SOLVING FOR HEAD 
                                                   Max.-Head-Change                         Max.-Flux-Residual
  Residual-Control   Outer-Iter.   Inner-Iter.     Column Row Layer    Maximum-Head-Change  Column Row Layer    Maximum-Flux-Residual          L2-NORM 
          0                 1           2             4    7     1      -0.5662933520E-01       4    7    1        -0.2966483895E+01      0.6670698208E+01
          0                 2           2             4    7     1       0.5508451871E-02       4    7    1         0.2966458954E+00      0.6670406900E+00
          0                 3           2             4    7     1      -0.3751055251E-03       4    7    1        -0.2076524524E-01      0.4669081002E-01
          0                 4           1             4    7     1       0.1492579811E-04       4    7    1         0.8492996064E-03      0.1909498350E-02

    ------------------------------------------------
       NWT REQUIRED            4 OUTER ITERATIONS 
       AND A TOTAL OF          7 INNER ITERATIONS.
    ------------------------------------------------

 NO OUTPUT CONTROL FOR STRESS PERIOD   31   TIME STEP    6
 
 SOLVING FOR HEAD 
                                                   Max.-Head-Change                         Max.-Flux-Residual
  Residual-Control   Outer-Iter.   Inner-Iter.     Column Row Layer    Maximum-Head-Change  Column Row Layer    Maximum-Flux-Residual          L2-NORM 
          0                 1           2             4    7     1      -0.5615421243E-01       4    7    1        -0.2942383033E+01      0.6566062801E+01
          0                 2           2             4    7     1       0.5462234159E-02       4    7    1         0.2942357225E+00      0.6565824854E+00
          0                 3           2             4    7     1      -0.3719582822E-03       4    7    1        -0.2059653389E-01      0.4595923370E-01
          0                 4           1             4    7     1       0.1480056610E-04       4    7    1         0.8423992929E-03      0.1879667120E-02

    ------------------------------------------------
       NWT REQUIRED            4 OUTER ITERATIONS 
       AND A TOTAL OF          7 INNER ITERATIONS.
    ------------------------------------------------

 NO OUTPUT CONTROL FOR STRESS PERIOD   31   TIME STEP    7
 
 SOLVING FOR HEAD 
                                                   Max.-Head-Change                         Max.-Flux-Residual
  Residual-Control   Outer-Iter.   Inner-Iter.     Column Row Layer    Maximum-Head-Change  Column Row Layer    Maximum-Flux-Residual          L2-NORM 
          0                 1           2             4    7     1      -0.5566908987E-01       4    7    1        -0.2917688908E+01      0.6466002721E+01
          0                 2           2             4    7     1       0.5415043934E-02       4    7    1         0.2917662365E+00      0.6465806575E+00
          0                 3           2             4    7     1      -0.3687448128E-03       4    7    1        -0.2042367049E-01      0.4525946481E-01
          0                 4           1             4    7     1       0.1467269917E-04       4    7    1         0.8353291591E-03      0.1851032962E-02

    ------------------------------------------------
       NWT REQUIRED            4 OUTER ITERATIONS 
       AND A TOTAL OF          7 INNER ITERATIONS.
    ------------------------------------------------

 NO OUTPUT CONTROL FOR STRESS PERIOD   31   TIME STEP    8
 
 SOLVING FOR HEAD 
                                                   Max.-Head-Change                         Max.-Flux-Residual
  Residual-Control   Outer-Iter.   Inner-Iter.     Column Row Layer    Maximum-Head-Change  Column Row Layer    Maximum-Flux-Residual          L2-NORM 
          0                 1           2             4    7     1      -0.5517544337E-01       4    7    1        -0.2892483641E+01      0.6370146350E+01
          0                 2           2             4    7     1       0.5367024738E-02       4    7    1         0.2892456486E+00      0.6369981873E+00
          0                 3           2             4    7     1      -0.3654748920E-03       4    7    1        -0.2024722983E-01      0.4458892921E-01
          0                 4           1             4    7     1       0.1454258610E-04       4    7    1         0.8281127282E-03      0.1823638488E-02

    ------------------------------------------------
       NWT REQUIRED            4 OUTER ITERATIONS 
       AND A TOTAL OF          7 INNER ITERATIONS.
    ------------------------------------------------

 NO OUTPUT CONTROL FOR STRESS PERIOD   31   TIME STEP    9
 
 SOLVING FOR HEAD 
                                                   Max.-Head-Change                         Max.-Flux-Residual
  Residual-Control   Outer-Iter.   Inner-Iter.     Column Row Layer    Maximum-Head-Change  Column Row Layer    Maximum-Flux-Residual          L2-NORM 
          0                 1           2             4    7     1      -0.5467452235E-01       4    7    1        -0.2866836423E+01      0.6278181495E+01
          0                 2           2             4    7     1       0.5318305836E-02       4    7    1         0.2866808766E+00      0.6281862766E+00
          0                 3           2             4    7     1      -0.3621573146E-03       4    7    1        -0.2006769620E-01      0.4397230186E-01
          0                 4           1             4    7     1       0.1441057654E-04       4    7    1         0.8207697942E-03      0.1798430999E-02

    ------------------------------------------------
       NWT REQUIRED            4 OUTER ITERATIONS 
       AND A TOTAL OF          7 INNER ITERATIONS.
    ------------------------------------------------

 NO OUTPUT CONTROL FOR STRESS PERIOD   31   TIME STEP   10
 
 SOLVING FOR HEAD 
                                                   Max.-Head-Change                         Max.-Flux-Residual
  Residual-Control   Outer-Iter.   Inner-Iter.     Column Row Layer    Maximum-Head-Change  Column Row Layer    Maximum-Flux-Residual          L2-NORM 
          0                 1           2             4    7     1      -0.5416731843E-01       4    7    1        -0.2840804293E+01      0.6189533835E+01
          0                 2           2             4    7     1       0.5268961163E-02       4    7    1         0.2840776234E+00      0.6189434760E+00
          0                 3           2             4    7     1      -0.3587971312E-03       4    7    1        -0.1988546878E-01      0.4332546587E-01
          0                 4           1             4    7     1       0.1427687160E-04       4    7    1         0.8133166773E-03      0.1771958510E-02

    ------------------------------------------------
       NWT REQUIRED            4 OUTER ITERATIONS 
       AND A TOTAL OF          7 INNER ITERATIONS.
    ------------------------------------------------

 NO OUTPUT CONTROL FOR STRESS PERIOD   31   TIME STEP   11
 
 SOLVING FOR HEAD 
                                                   Max.-Head-Change                         Max.-Flux-Residual
  Residual-Control   Outer-Iter.   Inner-Iter.     Column Row Layer    Maximum-Head-Change  Column Row Layer    Maximum-Flux-Residual          L2-NORM 
          0                 1           2             4    7     1      -0.5365506694E-01       4    7    1        -0.2814454527E+01      0.6103999711E+01
          0                 2           2             4    7     1       0.5219132612E-02       4    7    1         0.2814426159E+00      0.6103914794E+00
          0                 3           2             4    7     1      -0.3554039959E-03       4    7    1        -0.1970101846E-01      0.4272697839E-01
          0                 4           1             4    7     1       0.1414185571E-04       4    7    1         0.8057726579E-03      0.1747559439E-02

    ------------------------------------------------
       NWT REQUIRED            4 OUTER ITERATIONS 
       AND A TOTAL OF          7 INNER ITERATIONS.
    ------------------------------------------------

 NO OUTPUT CONTROL FOR STRESS PERIOD   31   TIME STEP   12
 
 SOLVING FOR HEAD 
                                                   Max.-Head-Change                         Max.-Flux-Residual
  Residual-Control   Outer-Iter.   Inner-Iter.     Column Row Layer    Maximum-Head-Change  Column Row Layer    Maximum-Flux-Residual          L2-NORM 
          0                 1           2             4    7     1      -0.5313861957E-01       4    7    1        -0.2787835360E+01      0.6021673972E+01
          0                 2           2             4    7     1       0.5168896040E-02       4    7    1         0.2787806765E+00      0.6021600422E+00
          0                 3           2             4    7     1      -0.3519830750E-03       4    7    1        -0.1951468285E-01      0.4215087138E-01
          0                 4           1             4    7     1       0.1400573413E-04       4    7    1         0.7981515187E-03      0.1723954150E-02

    ------------------------------------------------
       NWT REQUIRED            4 OUTER ITERATIONS 
       AND A TOTAL OF          7 INNER ITERATIONS.
    ------------------------------------------------

 NO OUTPUT CONTROL FOR STRESS PERIOD   31   TIME STEP   13
 
 SOLVING FOR HEAD 
                                                   Max.-Head-Change                         Max.-Flux-Residual
  Residual-Control   Outer-Iter.   Inner-Iter.     Column Row Layer    Maximum-Head-Change  Column Row Layer    Maximum-Flux-Residual          L2-NORM 
          0                 1           2             4    7     1      -0.5261904619E-01       4    7    1        -0.2761005979E+01      0.5942364230E+01
          0                 2           2             4    7     1       0.5118355505E-02       4    7    1         0.2760977235E+00      0.5942299732E+00
          0                 3           2             4    7     1      -0.3485414537E-03       4    7    1        -0.1932687619E-01      0.4159583548E-01
          0                 4           1             4    7     1       0.1386878881E-04       4    7    1         0.7904702038E-03      0.1701259147E-02

    ------------------------------------------------
       NWT REQUIRED            4 OUTER ITERATIONS 
       AND A TOTAL OF          7 INNER ITERATIONS.
    ------------------------------------------------

 NO OUTPUT CONTROL FOR STRESS PERIOD   31   TIME STEP   14
 
 SOLVING FOR HEAD 
                                                   Max.-Head-Change                         Max.-Flux-Residual
  Residual-Control   Outer-Iter.   Inner-Iter.     Column Row Layer    Maximum-Head-Change  Column Row Layer    Maximum-Flux-Residual          L2-NORM 
          0                 1           2             4    7     1      -0.5209707355E-01       4    7    1        -0.2734007202E+01      0.5865890103E+01
          0                 2           2             4    7     1       0.5067581692E-02       4    7    1         0.2733978378E+00      0.5865832381E+00
          0                 3           2             4    7     1      -0.3450839467E-03       4    7    1        -0.1913788419E-01      0.4106060500E-01
          0                 4           1             4    7     1       0.1373121145E-04       4    7    1         0.7827404322E-03      0.1679356272E-02

    ------------------------------------------------
       NWT REQUIRED            4 OUTER ITERATIONS 
       AND A TOTAL OF          7 INNER ITERATIONS.
    ------------------------------------------------

 NO OUTPUT CONTROL FOR STRESS PERIOD   31   TIME STEP   15
 
 SOLVING FOR HEAD 
                                                   Max.-Head-Change                         Max.-Flux-Residual
  Residual-Control   Outer-Iter.   Inner-Iter.     Column Row Layer    Maximum-Head-Change  Column Row Layer    Maximum-Flux-Residual          L2-NORM 
          0                 1           2             4    7     1      -0.5157350341E-01       4    7    1        -0.2706884040E+01      0.5792082676E+01
          0                 2           2             4    7     1       0.5016652577E-02       4    7    1         0.2706855198E+00      0.5792030681E+00
          0                 3           2             4    7     1      -0.3416158627E-03       4    7    1        -0.1894802185E-01      0.4054405761E-01
          0                 4           1             4    7     1       0.1359321317E-04       4    7    1         0.7749750509E-03      0.1658238372E-02

    ------------------------------------------------
       NWT REQUIRED            4 OUTER ITERATIONS 
       AND A TOTAL OF          7 INNER ITERATIONS.
    ------------------------------------------------

 NO OUTPUT CONTROL FOR STRESS PERIOD   31   TIME STEP   16
 
 SOLVING FOR HEAD 
                                                   Max.-Head-Change                         Max.-Flux-Residual
  Residual-Control   Outer-Iter.   Inner-Iter.     Column Row Layer    Maximum-Head-Change  Column Row Layer    Maximum-Flux-Residual          L2-NORM 
          0                 1           2             4    7     1      -0.5104907791E-01       4    7    1        -0.2679678063E+01      0.5720783718E+01
          0                 2           2             4    7     1       0.4965640342E-02       4    7    1         0.2679649260E+00      0.5720736466E+00
          0                 3           2             4    7     1      -0.3381421182E-03       4    7    1        -0.1875758018E-01      0.4004503103E-01
          0                 4           1             4    7     1       0.1345498948E-04       4    7    1         0.7671859767E-03      0.1637830420E-02

    ------------------------------------------------
       NWT REQUIRED            4 OUTER ITERATIONS 
       AND A TOTAL OF          7 INNER ITERATIONS.
    ------------------------------------------------

 NO OUTPUT CONTROL FOR STRESS PERIOD   31   TIME STEP   17
 
 SOLVING FOR HEAD 
                                                   Max.-Head-Change                         Max.-Flux-Residual
  Residual-Control   Outer-Iter.   Inner-Iter.     Column Row Layer    Maximum-Head-Change  Column Row Layer    Maximum-Flux-Residual          L2-NORM 
          0                 1           2             4    7     1      -0.5052448509E-01       4    7    1        -0.2652427751E+01      0.5651863704E+01
          0                 2           2             4    7     1       0.4914611907E-02       4    7    1         0.2652399038E+00      0.5651820346E+00
          0                 3           2             4    7     1      -0.3346672690E-03       4    7    1        -0.1856682844E-01      0.3956265635E-01
          0                 4           1             4    7     1       0.1331672181E-04       4    7    1         0.7593842111E-03      0.1618093994E-02

    ------------------------------------------------
       NWT REQUIRED            4 OUTER ITERATIONS 
       AND A TOTAL OF          7 INNER ITERATIONS.
    ------------------------------------------------

 NO OUTPUT CONTROL FOR STRESS PERIOD   31   TIME STEP   18
 
 SOLVING FOR HEAD 
                                                   Max.-Head-Change                         Max.-Flux-Residual
  Residual-Control   Outer-Iter.   Inner-Iter.     Column Row Layer    Maximum-Head-Change  Column Row Layer    Maximum-Flux-Residual          L2-NORM 
          0                 1           2             4    7     1      -0.5000049139E-01       4    7    1        -0.2625176101E+01      0.5585199581E+01
          0                 2           2             4    7     1       0.4863641817E-02       4    7    1         0.2625147524E+00      0.5585159397E+00
          0                 3           2             4    7     1      -0.3311963931E-03       4    7    1        -0.1837606765E-01      0.3909605703E-01
          0                 4           1             4    7     1       0.1317861255E-04       4    7    1         0.7515820853E-03      0.1599024560E-02

    ------------------------------------------------
       NWT REQUIRED            4 OUTER ITERATIONS 
       AND A TOTAL OF          7 INNER ITERATIONS.
    ------------------------------------------------

 NO OUTPUT CONTROL FOR STRESS PERIOD   31   TIME STEP   19
 
 SOLVING FOR HEAD 
                                                   Max.-Head-Change                         Max.-Flux-Residual
  Residual-Control   Outer-Iter.   Inner-Iter.     Column Row Layer    Maximum-Head-Change  Column Row Layer    Maximum-Flux-Residual          L2-NORM 
          0                 1           2             4    7     1      -0.4947740407E-01       4    7    1        -0.2597940884E+01      0.5520660345E+01
          0                 2           2             4    7     1       0.4812759956E-02       4    7    1         0.2597912484E+00      0.5520622824E+00
          0                 3           2             4    7     1      -0.3277315246E-03       4    7    1        -0.1818542212E-01      0.3864430688E-01
          0                 4           1             4    7     1       0.1304074253E-04       4    7    1         0.7437846862E-03      0.1580545674E-02

    ------------------------------------------------
       NWT REQUIRED            4 OUTER ITERATIONS 
       AND A TOTAL OF          7 INNER ITERATIONS.
    ------------------------------------------------

 NO OUTPUT CONTROL FOR STRESS PERIOD   31   TIME STEP   20
 
 SOLVING FOR HEAD 
                                                   Max.-Head-Change                         Max.-Flux-Residual
  Residual-Control   Outer-Iter.   Inner-Iter.     Column Row Layer    Maximum-Head-Change  Column Row Layer    Maximum-Flux-Residual          L2-NORM 
          0                 1           2             4    7     1      -0.4895603129E-01       4    7    1        -0.2570767323E+01      0.5458146537E+01
          0                 2           2             4    7     1       0.4762044924E-02       4    7    1         0.2570739137E+00      0.5458111118E+00
          0                 3           2             4    7     1      -0.3242780156E-03       4    7    1        -0.1799520839E-01      0.3820674194E-01
          0                 4           1             4    7     1       0.1290332427E-04       4    7    1         0.7360049333E-03      0.1562657653E-02

    ------------------------------------------------
       NWT REQUIRED            4 OUTER ITERATIONS 
       AND A TOTAL OF          7 INNER ITERATIONS.
    ------------------------------------------------

 NO OUTPUT CONTROL FOR STRESS PERIOD   31   TIME STEP   21
 
 SOLVING FOR HEAD 
                                                   Max.-Head-Change                         Max.-Flux-Residual
  Residual-Control   Outer-Iter.   Inner-Iter.     Column Row Layer    Maximum-Head-Change  Column Row Layer    Maximum-Flux-Residual          L2-NORM 
          0                 1           2             4    7     1      -0.4843672235E-01       4    7    1        -0.2543675352E+01      0.5397556472E+01
          0                 2           2             4    7     1       0.4711530697E-02       4    7    1         0.2543647413E+00      0.5397523166E+00
          0                 3           2             4    7     1      -0.3208381805E-03       4    7    1        -0.1780556603E-01      0.3778264793E-01
          0                 4           1             4    7     1       0.1276644975E-04       4    7    1         0.7282485451E-03      0.1545308526E-02

    ------------------------------------------------
       NWT REQUIRED            4 OUTER ITERATIONS 
       AND A TOTAL OF          7 INNER ITERATIONS.
    ------------------------------------------------

 NO OUTPUT CONTROL FOR STRESS PERIOD   31   TIME STEP   22
 
 SOLVING FOR HEAD 
                                                   Max.-Head-Change                         Max.-Flux-Residual
  Residual-Control   Outer-Iter.   Inner-Iter.     Column Row Layer    Maximum-Head-Change  Column Row Layer    Maximum-Flux-Residual          L2-NORM 
          0                 1           2             4    7     1      -0.4792006044E-01       4    7    1        -0.2516697726E+01      0.5338801108E+01
          0                 2           2             4    7     1       0.4661273995E-02       4    7    1         0.2516670061E+00      0.5338769404E+00
          0                 3           2             4    7     1      -0.3174158814E-03       4    7    1        -0.1761672423E-01      0.3737137972E-01
          0                 4           1             4    7     1       0.1263027303E-04       4    7    1         0.7205248944E-03      0.1528491326E-02

    ------------------------------------------------
       NWT REQUIRED            4 OUTER ITERATIONS 
       AND A TOTAL OF          7 INNER ITERATIONS.
    ------------------------------------------------

 NO OUTPUT CONTROL FOR STRESS PERIOD   31   TIME STEP   23
 
 SOLVING FOR HEAD 
                                                   Max.-Head-Change                         Max.-Flux-Residual
  Residual-Control   Outer-Iter.   Inner-Iter.     Column Row Layer    Maximum-Head-Change  Column Row Layer    Maximum-Flux-Residual          L2-NORM 
          0                 1           2             4    7     1      -0.4740631100E-01       4    7    1        -0.2489850041E+01      0.5281784192E+01
          0                 2           2             4    7     1       0.4611300634E-02       4    7    1         0.2489822677E+00      0.5281753849E+00
          0                 3           2             4    7     1      -0.3140128764E-03       4    7    1        -0.1742879217E-01      0.3697227747E-01
          0                 4           1             4    7     1       0.1249486455E-04       4    7    1         0.7128384755E-03      0.1512164466E-02

    ------------------------------------------------
       NWT REQUIRED            4 OUTER ITERATIONS 
       AND A TOTAL OF          7 INNER ITERATIONS.
    ------------------------------------------------

 NO OUTPUT CONTROL FOR STRESS PERIOD   31   TIME STEP   24
 
 SOLVING FOR HEAD 
                                                   Max.-Head-Change                         Max.-Flux-Residual
  Residual-Control   Outer-Iter.   Inner-Iter.     Column Row Layer    Maximum-Head-Change  Column Row Layer    Maximum-Flux-Residual          L2-NORM 
          0                 1           2             4    7     1      -0.4689584351E-01       4    7    1        -0.2463153382E+01      0.5226427958E+01
          0                 2           2             4    7     1       0.4561646550E-02       4    7    1         0.2463126340E+00      0.5226398968E+00
          0                 3           2             4    7     1      -0.3106316123E-03       4    7    1        -0.1724191741E-01      0.3658480156E-01
          0                 4           1             4    7     1       0.1236032103E-04       4    7    1         0.7051952855E-03      0.1496315991E-02

    ------------------------------------------------
       NWT REQUIRED            4 OUTER ITERATIONS 
       AND A TOTAL OF          7 INNER ITERATIONS.
    ------------------------------------------------

 NO OUTPUT CONTROL FOR STRESS PERIOD   31   TIME STEP   25
 
 SOLVING FOR HEAD 
                                                   Max.-Head-Change                         Max.-Flux-Residual
  Residual-Control   Outer-Iter.   Inner-Iter.     Column Row Layer    Maximum-Head-Change  Column Row Layer    Maximum-Flux-Residual          L2-NORM 
          0                 1           2             4    7     1      -0.4638899602E-01       4    7    1        -0.2436626905E+01      0.5172658317E+01
          0                 2           2             4    7     1       0.4512344621E-02       4    7    1         0.2436600205E+00      0.5172630385E+00
          0                 3           2             4    7     1      -0.3072743287E-03       4    7    1        -0.1705623407E-01      0.3620841508E-01
          0                 4           1             4    7     1       0.1222673145E-04       4    7    1         0.6976008183E-03      0.1480922250E-02

    ------------------------------------------------
       NWT REQUIRED            4 OUTER ITERATIONS 
       AND A TOTAL OF          7 INNER ITERATIONS.
    ------------------------------------------------

 NO OUTPUT CONTROL FOR STRESS PERIOD   31   TIME STEP   26
 
 SOLVING FOR HEAD 
                                                   Max.-Head-Change                         Max.-Flux-Residual
  Residual-Control   Outer-Iter.   Inner-Iter.     Column Row Layer    Maximum-Head-Change  Column Row Layer    Maximum-Flux-Residual          L2-NORM 
          0                 1           2             4    7     1      -0.4588620510E-01       4    7    1        -0.2410295456E+01      0.5120410508E+01
          0                 2           2             4    7     1       0.4463437310E-02       4    7    1         0.2410269115E+00      0.5120383655E+00
          0                 3           2             4    7     1      -0.3039439172E-03       4    7    1        -0.1687191602E-01      0.3584270509E-01
          0                 4           1             4    7     1       0.1209421141E-04       4    7    1         0.6900622241E-03      0.1465967090E-02

    ------------------------------------------------
       NWT REQUIRED            4 OUTER ITERATIONS 
       AND A TOTAL OF          7 INNER ITERATIONS.
    ------------------------------------------------

 NO OUTPUT CONTROL FOR STRESS PERIOD   31   TIME STEP   27
 
 SOLVING FOR HEAD 
                                                   Max.-Head-Change                         Max.-Flux-Residual
  Residual-Control   Outer-Iter.   Inner-Iter.     Column Row Layer    Maximum-Head-Change  Column Row Layer    Maximum-Flux-Residual          L2-NORM 
          0                 1           2             4    7     1      -0.4538774111E-01       4    7    1        -0.2384174351E+01      0.5069617166E+01
          0                 2           2             4    7     1       0.4414950912E-02       4    7    1         0.2384148383E+00      0.5069591123E+00
          0                 3           2             4    7     1      -0.3006421677E-03       4    7    1        -0.1668907045E-01      0.3548716184E-01
          0                 4           1             4    7     1       0.1196283193E-04       4    7    1         0.6825838327E-03      0.1451425480E-02

    ------------------------------------------------
       NWT REQUIRED            4 OUTER ITERATIONS 
       AND A TOTAL OF          7 INNER ITERATIONS.
    ------------------------------------------------

 NO OUTPUT CONTROL FOR STRESS PERIOD   31   TIME STEP   28
 
 SOLVING FOR HEAD 
                                                   Max.-Head-Change                         Max.-Flux-Residual
  Residual-Control   Outer-Iter.   Inner-Iter.     Column Row Layer    Maximum-Head-Change  Column Row Layer    Maximum-Flux-Residual          L2-NORM 
          0                 1           2             4    7     1      -0.4489370040E-01       4    7    1        -0.2358270294E+01      0.5020201744E+01
          0                 2           2             4    7     1       0.4366894796E-02       4    7    1         0.2358244709E+00      0.5020176591E+00
          0                 3           2             4    7     1      -0.2973697192E-03       4    7    1        -0.1650774431E-01      0.3514125541E-01
          0                 4           1             4    7     1       0.1183261801E-04       4    7    1         0.6751675890E-03      0.1437279060E-02

    ------------------------------------------------
       NWT REQUIRED            4 OUTER ITERATIONS 
       AND A TOTAL OF          7 INNER ITERATIONS.
    ------------------------------------------------

 NO OUTPUT CONTROL FOR STRESS PERIOD   31   TIME STEP   29
 
 SOLVING FOR HEAD 
                                                   Max.-Head-Change                         Max.-Flux-Residual
  Residual-Control   Outer-Iter.   Inner-Iter.     Column Row Layer    Maximum-Head-Change  Column Row Layer    Maximum-Flux-Residual          L2-NORM 
          0                 1           2             4    7     1      -0.4440430883E-01       4    7    1        -0.2332595596E+01      0.4972128072E+01
          0                 2           2             4    7     1       0.4319290929E-02       4    7    1         0.2332570406E+00      0.4972103656E+00
          0                 3           2             4    7     1      -0.2941280662E-03       4    7    1        -0.1632802374E-01      0.3480475126E-01
          0                 4           1             4    7     1       0.1170362951E-04       4    7    1         0.6678169927E-03      0.1423514130E-02

    ------------------------------------------------
       NWT REQUIRED            4 OUTER ITERATIONS 
       AND A TOTAL OF          7 INNER ITERATIONS.
    ------------------------------------------------

 NO OUTPUT CONTROL FOR STRESS PERIOD   31   TIME STEP   30



 STREAM LISTING     PERIOD     31   STEP       30

 LAYER ROW COL. STREAM  RCH.  FLOW INTO     FLOW TO   FLOW OUT OF   OVRLND.     DIRECT     STREAM       STREAM     STREAM     STREAM   STREAMBED  STREAMBED
                SEG.NO.  NO.  STRM. RCH.    AQUIFER    STRM. RCH.    RUNOFF     PRECIP       ET          HEAD       DEPTH      WIDTH   CONDCTNC.   GRADIENT

   1    1    1     1     1    6.2248E+01  3.7978E-01   6.1868E+01  0.000E+00  0.000E+00  0.000E+00  1.09460E+03  1.553E+00  1.854E+01  8.342E-02  1.518E+00
   1    2    2     1     2    6.1868E+01  5.8816E-01   6.1280E+01  0.000E+00  0.000E+00  0.000E+00  1.08961E+03  1.547E+00  1.848E+01  1.294E-01  1.516E+00
   1    3    3     1     3    6.1280E+01  5.0162E-01   6.0779E+01  0.000E+00  0.000E+00  0.000E+00  1.08396E+03  1.540E+00  1.841E+01  1.105E-01  1.513E+00
   1    3    4     1     4    6.0779E+01  4.6193E-01   6.0317E+01  0.000E+00  0.000E+00  0.000E+00  1.07894E+03  1.534E+00  1.836E+01  1.019E-01  1.511E+00
   1    4    5     2     1    5.8317E+01  3.9026E-01   5.7926E+01  0.000E+00  0.000E+00  0.000E+00  1.07394E+03  2.003E+00  1.200E+01  7.800E-02  1.668E+00
   1    5    6     2     2    5.7926E+01  2.9977E-01   5.7627E+01  0.000E+00  0.000E+00  0.000E+00  1.06851E+03  1.996E+00  1.200E+01  6.000E-02  1.665E+00
   1    6    6     2     3    5.7627E+01  2.9940E-01   5.7327E+01  0.000E+00  0.000E+00  0.000E+00  1.06378E+03  1.990E+00  1.200E+01  6.000E-02  1.663E+00
   1    7    6     2     4    5.7327E+01  2.9902E-01   5.7028E+01  0.000E+00  0.000E+00  0.000E+00  1.05906E+03  1.984E+00  1.200E+01  6.000E-02  1.661E+00
   1    8    6     2     5    5.7028E+01  2.9865E-01   5.6730E+01  0.000E+00  0.000E+00  0.000E+00  1.05434E+03  1.977E+00  1.200E+01  6.000E-02  1.659E+00
   1    3    5     3     1    2.0000E+00  2.8252E-01   1.7175E+00  0.000E+00  0.000E+00  0.000E+00  1.07555E+03  1.909E+00  9.636E+00  7.227E-02  1.955E+00
   1    3    6     3     2    1.7175E+00  2.4905E-01   1.4684E+00  0.000E+00  0.000E+00  0.000E+00  1.07264E+03  1.727E+00  8.909E+00  6.682E-02  1.864E+00
   1    3    7     3     3    1.4684E+00  1.9718E-01   1.2712E+00  0.000E+00  0.000E+00  0.000E+00  1.06987E+03  1.555E+00  8.218E+00  5.547E-02  1.777E+00
   1    4    8     3     4    1.2712E+00  2.2567E-01   1.0456E+00  0.000E+00  0.000E+00  0.000E+00  1.06682E+03  1.364E+00  7.455E+00  6.709E-02  1.682E+00
   1    5    8     3     5    1.0456E+00  1.5790E-01   8.8768E-01  0.000E+00  0.000E+00  0.000E+00  1.06362E+03  1.164E+00  6.655E+00  4.991E-02  1.582E+00
   1    6    8     3     6    8.8768E-01  5.5980E-02   8.3170E-01  0.000E+00  0.000E+00  0.000E+00  1.06158E+03  1.036E+00  6.145E+00  1.844E-02  1.518E+00
   1    5   10     4     1    1.0000E+01  9.0919E-02   9.9091E+00  0.000E+00  0.000E+00  0.000E+00  1.07836E+03  6.368E-01  1.000E+01  2.500E-02  1.212E+00
   1    5    9     4     2    9.9091E+00  1.8158E-01   9.7275E+00  0.000E+00  0.000E+00  0.000E+00  1.07154E+03  6.315E-01  1.000E+01  5.000E-02  1.211E+00
   1    6    8     4     3    9.7275E+00  1.2689E-01   9.6006E+00  0.000E+00  0.000E+00  0.000E+00  1.06381E+03  6.256E-01  1.000E+01  3.500E-02  1.209E+00
   1    6    8     5     1    1.0432E+01  2.2686E-01   1.0205E+01  0.000E+00  0.000E+00  0.000E+00  1.05868E+03  6.790E-01  1.542E+01  6.166E-02  1.226E+00
   1    7    7     5     2    1.0205E+01  2.7894E-01   9.9265E+00  0.000E+00  0.000E+00  0.000E+00  1.05417E+03  6.732E-01  1.519E+01  7.594E-02  1.224E+00
   1    8    7     5     3    9.9265E+00  1.9221E-01   9.7343E+00  0.000E+00  0.000E+00  0.000E+00  1.04992E+03  6.676E-01  1.497E+01  5.241E-02  1.223E+00
   1    8    6     5     4    9.7343E+00  1.3577E-01   9.5985E+00  0.000E+00  0.000E+00  0.000E+00  1.04691E+03  6.637E-01  1.482E+01  3.706E-02  1.221E+00
   1    9    6     6     1    6.6328E+01  3.1138E-01   6.6017E+01  0.000E+00  0.000E+00  0.000E+00  1.04492E+03  2.190E+00  1.200E+01  6.000E-02  1.730E+00
   1   10    7     6     2    6.6017E+01  3.1101E-01   6.5706E+01  0.000E+00  0.000E+00  0.000E+00  1.04037E+03  2.183E+00  1.200E+01  6.000E-02  1.728E+00
   1   11    7     6     3    6.5706E+01  3.1064E-01   6.5395E+01  0.000E+00  0.000E+00  0.000E+00  1.03581E+03  2.177E+00  1.200E+01  6.000E-02  1.726E+00
   1   12    7     6     4    6.5395E+01  3.1027E-01   6.5085E+01  0.000E+00  0.000E+00  0.000E+00  1.03126E+03  2.171E+00  1.200E+01  6.000E-02  1.724E+00
   1   13    7     6     5    6.5085E+01  2.9905E-02   6.5055E+01  0.000E+00  0.000E+00  0.000E+00  1.02808E+03  2.168E+00  1.200E+01  2.400E-02  4.153E-01
   1   14    9     7     1    1.5000E+02  1.3530E+00   1.4865E+02  0.000E+00  0.000E+00  0.000E+00  1.03987E+03  2.288E+00  5.529E+01  5.593E-01  8.063E-01
   1   13    8     7     2    1.4865E+02  1.9098E+00   1.4674E+02  0.000E+00  0.000E+00  0.000E+00  1.03478E+03  2.279E+00  5.526E+01  6.148E-01  1.036E+00
   1   13    7     7     3    1.4674E+02  1.5961E+00   1.4514E+02  0.000E+00  0.000E+00  0.000E+00  1.02969E+03  2.270E+00  5.521E+01  5.584E-01  9.527E-01
   1   13    6     8     1    2.1020E+02  1.2136E+00   2.0898E+02  0.000E+00  0.000E+00  0.000E+00  1.02507E+03  3.193E+00  4.630E+01  4.718E-01  8.574E-01
   1   13    5     8     2    2.0898E+02  3.8924E-01   2.0859E+02  0.000E+00  0.000E+00  0.000E+00  1.01881E+03  3.189E+00  4.624E+01  4.712E-01  2.754E-01
   1   13    4     8     3    2.0859E+02 -1.8406E+00   2.1043E+02  0.000E+00  0.000E+00  0.000E+00  1.01257E+03  3.193E+00  4.630E+01  4.718E+00 -1.300E-01
   1   13    3     8     4    2.1043E+02 -3.2601E+00   2.1369E+02  0.000E+00  0.000E+00  0.000E+00  1.00633E+03  3.207E+00  4.651E+01  4.739E+00 -2.293E-01
   1   13    2     8     5    2.1369E+02 -2.4880E+00   2.1618E+02  0.000E+00  0.000E+00  0.000E+00  1.00010E+03  3.224E+00  4.674E+01  4.763E+00 -1.741E-01
   1   13    1     8     6    2.1618E+02 -1.9640E+00   2.1815E+02  0.000E+00  0.000E+00  0.000E+00  9.95111E+02  3.236E+00  4.692E+01  2.869E+00 -2.282E-01
   1    8    6     9     1    0.0000E+00  0.0000E+00   0.0000E+00  0.000E+00  0.000E+00  0.000E+00  1.07875E+03  0.000E+00  4.000E+00  0.000E+00  1.000E+00
   1    8    5     9     2    0.0000E+00  0.0000E+00   0.0000E+00  0.000E+00  0.000E+00  0.000E+00  1.07825E+03  0.000E+00  4.000E+00  0.000E+00  1.000E+00





UNSATURATED ZONE PACKAGE VOLUMETRIC BUDGET FOR  TIME STEP    30 STRESS PERIOD   31
  ------------------------------------------------------------------------------



     CUMULATIVE VOLUMES      L**3       RATES FOR THIS TIME STEP      L**3/T
     ------------------                 ------------------------

           IN:                                      IN:
           ---                                      ---
        INFILTRATION =   953461886.2570          INFILTRATION =          23.3175

          OUT:                                     OUT:
          ----                                     ----
              UZF ET =   952654967.4370                UZF ET =          23.3175
        UZF RECHARGE =       73224.0000          UZF RECHARGE =       0.0000E+00

            IN - OUT =      733694.8200              IN - OUT =       0.0000E+00

          STORAGE:                                 STORAGE:
          --------                                 --------
      STORAGE CHANGE =      733694.8611        STORAGE CHANGE =      -1.0789E-15

 PERCENT DISCREPANCY IS DIFFERENCE BETWEEN IN-OUT MINUS CHANGE IN STORAGE
 DIVIDED BY THE AVERAGE OF IN AND OUT TIMES 100

 PERCENT DISCREPANCY =           0.00     PERCENT DISCREPANCY =           0.00






1
  VOLUMETRIC BUDGET FOR AGRICULTURAL FIELDS AT  END OF TIME STEP   30, STRESS PERIOD  31
  ------------------------------------------------------------------------------

     CUMULATIVE VOLUMES      L**3       RATES FOR THIS TIME STEP      L**3/T
     ------------------                 ------------------------

           IN:                                      IN:
           ---                                      ---
               AG WELLS  =   886518080.0000                 AG WELLS  =          22.4700
      DIVERSION SEGMENTS =           0.0000        DIVERSION SEGMENTS =           0.0000
       IRRIGATION PONDS  =           0.0000         IRRIGATION PONDS  =           0.0000
           GW IRRIGATION =           0.0000             GW IRRIGATION =           0.0000
           SW IRRIGATION =           0.0000             SW IRRIGATION =           0.0000
        SYSTEM LOSSES GW =           0.0000          SYSTEM LOSSES GW =           0.0000
        SYSTEM LOSSES SW =           0.0000          SYSTEM LOSSES SW =           0.0000

                TOTAL IN =   886518080.0000                  TOTAL IN =          22.4700

          OUT:                                     OUT:
          ----                                     ----
               AG WELLS  =           0.0000                 AG WELLS  =           0.0000
      DIVERSION SEGMENTS =           0.0000        DIVERSION SEGMENTS =           0.0000
       IRRIGATION PONDS  =           0.0000         IRRIGATION PONDS  =           0.0000
           GW IRRIGATION =   886518080.0000             GW IRRIGATION =          22.4700
           SW IRRIGATION =           0.0000             SW IRRIGATION =           0.0000
        SYSTEM LOSSES GW =           0.0000          SYSTEM LOSSES GW =           0.0000
        SYSTEM LOSSES SW =           0.0000          SYSTEM LOSSES SW =           0.0000

               TOTAL OUT =   886518080.0000                 TOTAL OUT =          22.4700

                IN - OUT =           0.0000                  IN - OUT =           0.0000

     PERCENT DISCREPANCY =           0.00         PERCENT DISCREPANCY =           0.00



1
  VOLUMETRIC BUDGET FOR ENTIRE MODEL AT END OF TIME STEP   30, STRESS PERIOD  31
  ------------------------------------------------------------------------------

     CUMULATIVE VOLUMES      L**3       RATES FOR THIS TIME STEP      L**3/T
     ------------------                 ------------------------

           IN:                                      IN:
           ---                                      ---
             STORAGE     =  1220774272.0000               STORAGE     =          19.0779
       CONSTANT HEAD     =           0.0000         CONSTANT HEAD     =           0.0000
     HEAD DEP BOUNDS     =    22586682.0000       HEAD DEP BOUNDS     =           0.2869
      STREAM LEAKAGE     =   966437120.0000        STREAM LEAKAGE     =          13.6550
        UZF RECHARGE     =       73223.9531          UZF RECHARGE     =           0.0000
               GW ET     =           0.0000                 GW ET     =           0.0000
     SURFACE LEAKAGE     =           0.0000       SURFACE LEAKAGE     =           0.0000
           AG WELLS      =           0.0000             AG WELLS      =           0.0000

                TOTAL IN =  2209871360.0000                  TOTAL IN =          33.0198

          OUT:                                     OUT:
          ----                                     ----
             STORAGE     =   477991264.0000               STORAGE     =           0.5490
       CONSTANT HEAD     =           0.0000         CONSTANT HEAD     =           0.0000
     HEAD DEP BOUNDS     =    23079450.0000       HEAD DEP BOUNDS     =           0.2962
      STREAM LEAKAGE     =   814271872.0000        STREAM LEAKAGE     =           9.5527
        UZF RECHARGE     =           0.0000          UZF RECHARGE     =           0.0000
               GW ET     =     8014210.5000                 GW ET     =           0.1520
     SURFACE LEAKAGE     =           0.0000       SURFACE LEAKAGE     =           0.0000
           AG WELLS      =   886518080.0000             AG WELLS      =          22.4700

               TOTAL OUT =  2209874944.0000                 TOTAL OUT =          33.0199

                IN - OUT =       -3584.0000                  IN - OUT =      -6.1035E-05

     PERCENT DISCREPANCY =          -0.00         PERCENT DISCREPANCY =          -0.00






         TIME SUMMARY AT END OF TIME STEP   30 IN STRESS PERIOD   31
                    SECONDS     MINUTES      HOURS       DAYS        YEARS
                    -----------------------------------------------------------
   TIME STEP LENGTH  87667.      1461.1      24.352      1.0147     2.77799E-03
 STRESS PERIOD TIME 2.63000E+06  43833.      730.56      30.440     8.33397E-02
         TOTAL TIME 7.89864E+07 1.31644E+06  21941.      914.20      2.5029    
1
1
                            STRESS PERIOD NO.   32, LENGTH =   2630000.    
                            -----------------------------------------------

                              NUMBER OF TIME STEPS =    30

                               MULTIPLIER FOR DELT =     1.000

                            INITIAL TIME STEP SIZE =   87666.66    

 REUSING NON-PARAMETER GHB CELLS FROM LAST STRESS PERIOD

      2 GHB CELLS

 REUSING STREAM SEGMENT DATA FROM LAST STRESS PERIOD



            AREAL INFILTRATION RATE
 READING ON UNIT   19 WITH FORMAT: (FREE)              

            1           2           3           4           5           6           7           8           9          10
 ........................................................................................................................
   1   1.0000E-10  2.0000E-10   0.000       0.000       0.000       0.000       0.000       0.000       0.000       0.000    
   2   2.0000E-10  1.0000E-10  2.0000E-10   0.000       0.000      8.0000E-10  8.0000E-10  5.0000E-10   0.000       0.000    
   3    0.000      5.0000E-10  1.0000E-10  1.0000E-10  8.0000E-10  8.0000E-10  5.0000E-10  5.0000E-10   0.000       0.000    
   4   8.0000E-10  5.0000E-10  1.0000E-10  1.0000E-10  1.0000E-10  1.0000E-10  1.0000E-10  1.0000E-10  2.0000E-10   0.000    
   5   8.0000E-10  5.0000E-10  1.0000E-10  1.0000E-10  1.0000E-10  1.0000E-10  1.0000E-10  1.0000E-10  1.0000E-10  1.0000E-10
   6   8.0000E-10  5.0000E-10  5.0000E-10  2.0000E-10  2.0000E-10  1.0000E-10  1.0000E-10  1.0000E-10  1.0000E-10  5.0000E-10
   7   8.0000E-10  5.0000E-10  5.0000E-10  2.0000E-10  2.0000E-10  1.0000E-10  1.0000E-10  2.0000E-10  2.0000E-10   0.000    
   8    0.000      5.0000E-10  5.0000E-10  2.0000E-10  2.0000E-10  1.0000E-10  1.0000E-10  2.0000E-10  5.0000E-10   0.000    
   9    0.000      5.0000E-10  5.0000E-10  2.0000E-10  2.0000E-10  1.0000E-10  1.0000E-10  2.0000E-10  5.0000E-10   0.000    
  10    0.000      5.0000E-10  5.0000E-10  2.0000E-10  2.0000E-10  1.0000E-10  1.0000E-10  2.0000E-10  5.0000E-10  8.0000E-10
  11    0.000      1.0000E-10  1.0000E-10  1.0000E-10  1.0000E-10  1.0000E-10  1.0000E-10  2.0000E-10  5.0000E-10   0.000    
  12   1.0000E-10  1.0000E-10  1.0000E-10  1.0000E-10  1.0000E-10  1.0000E-10  1.0000E-10  1.0000E-10  2.0000E-10   0.000    
  13   1.0000E-10  1.0000E-10  2.0000E-10  2.0000E-10  2.0000E-10  2.0000E-10  2.0000E-10  1.0000E-10  1.0000E-10   0.000    
  14    0.000      2.0000E-10  5.0000E-10  5.0000E-10  5.0000E-10  5.0000E-10  5.0000E-10  2.0000E-10  1.0000E-10   0.000    
  15    0.000       0.000      8.0000E-10  8.0000E-10  8.0000E-10  8.0000E-10   0.000       0.000       0.000       0.000    

                  ET RATE =  4.000000E-07

 USING ET EXTINCTION DEPTH FROM PREVIOUS STRESS PERIOD. CURRENT PERIOD IS:      32

 USING EXTINCTION WATER CONTENT FROM PREVIOUS STRESS PERIOD. CURRENT PERIOD IS:      32

 USING AIR ENTRY PRESSURE FROM PREVIOUS STRESS PERIOD. CURRENT PERIOD IS:      32

 USING ROOT PRESSURE HEAD FROM PREVIOUS STRESS PERIOD. CURRENT PERIOD IS:      32

 USING ROOT ACTIVITY FROM PREVIOUS STRESS PERIOD. CURRENT PERIOD IS:      32

 PROCESSING AG STRESS PERIOD DATA

 READING AG STRESS PERIOD DATA

 READING IRRIGATION SEGMENT

 READING IRRIGATION WELL

 READING SUPPLEMENTAL WELL

 NO IRRPOND OR REUSING IRRPOND DATA FROM LAST STRESS PERIOD

 END PROCESSING AG STRESS PERIOD DATA OPTIONS
 
 SOLVING FOR HEAD 
                                                   Max.-Head-Change                         Max.-Flux-Residual
  Residual-Control   Outer-Iter.   Inner-Iter.     Column Row Layer    Maximum-Head-Change  Column Row Layer    Maximum-Flux-Residual          L2-NORM 
          0                 1           2             4    7     1      -0.1636345491E+00       4    7    1        -0.8557176358E+01      0.1999346416E+02
          0                 2           2             4    7     1       0.1591692387E-01       4    7    1         0.8557006389E+00      0.1999304569E+01
          0                 3           2             4    7     1      -0.1083886008E-02       4    7    1        -0.5989923143E-01      0.1399503003E+00
          0                 4           1             4    7     1       0.4312882684E-04       4    7    1         0.2449881229E-02      0.5723888700E-02

    ------------------------------------------------
       NWT REQUIRED            4 OUTER ITERATIONS 
       AND A TOTAL OF          7 INNER ITERATIONS.
    ------------------------------------------------

 NO OUTPUT CONTROL FOR STRESS PERIOD   32   TIME STEP    1
 
 SOLVING FOR HEAD 
                                                   Max.-Head-Change                         Max.-Flux-Residual
  Residual-Control   Outer-Iter.   Inner-Iter.     Column Row Layer    Maximum-Head-Change  Column Row Layer    Maximum-Flux-Residual          L2-NORM 
          0                 1           2             4    7     1      -0.1625285436E+00       4    7    1        -0.8502169761E+01      0.1967824669E+02
          0                 2           2             4    7     1       0.1580932372E-01       4    7    1         0.8501988966E+00      0.1967784789E+01
          0                 3           2             4    7     1      -0.1076558992E-02       4    7    1        -0.5951411953E-01      0.1377441082E+00
          0                 4           1             4    7     1       0.4283727724E-04       4    7    1         0.2434130084E-02      0.5633661297E-02

    ------------------------------------------------
       NWT REQUIRED            4 OUTER ITERATIONS 
       AND A TOTAL OF          7 INNER ITERATIONS.
    ------------------------------------------------

 NO OUTPUT CONTROL FOR STRESS PERIOD   32   TIME STEP    2
 
 SOLVING FOR HEAD 
                                                   Max.-Head-Change                         Max.-Flux-Residual
  Residual-Control   Outer-Iter.   Inner-Iter.     Column Row Layer    Maximum-Head-Change  Column Row Layer    Maximum-Flux-Residual          L2-NORM 
          0                 1           2             4    7     1      -0.1613798307E+00       4    7    1        -0.8444701805E+01      0.1937768594E+02
          0                 2           2             4    7     1       0.1569757125E-01       4    7    1         0.8444511484E+00      0.1937732278E+01
          0                 3           2             4    7     1      -0.1068949201E-02       4    7    1        -0.5911178601E-01      0.1356408044E+00
          0                 4           1             4    7     1       0.4253447600E-04       4    7    1         0.2417674576E-02      0.5547676112E-02

    ------------------------------------------------
       NWT REQUIRED            4 OUTER ITERATIONS 
       AND A TOTAL OF          7 INNER ITERATIONS.
    ------------------------------------------------

 NO OUTPUT CONTROL FOR STRESS PERIOD   32   TIME STEP    3
 
 SOLVING FOR HEAD 
                                                   Max.-Head-Change                         Max.-Flux-Residual
  Residual-Control   Outer-Iter.   Inner-Iter.     Column Row Layer    Maximum-Head-Change  Column Row Layer    Maximum-Flux-Residual          L2-NORM 
          0                 1           2             4    7     1      -0.1601926405E+00       4    7    1        -0.8385004909E+01      0.1909109104E+02
          0                 2           2             4    7     1       0.1558207780E-01       4    7    1         0.8384806276E+00      0.1909075038E+01
          0                 3           2             4    7     1      -0.1061084644E-02       4    7    1        -0.5869385722E-01      0.1336350078E+00
          0                 4           1             4    7     1       0.4222153742E-04       4    7    1         0.2400581233E-02      0.5465642559E-02

    ------------------------------------------------
       NWT REQUIRED            4 OUTER ITERATIONS 
       AND A TOTAL OF          7 INNER ITERATIONS.
    ------------------------------------------------

 NO OUTPUT CONTROL FOR STRESS PERIOD   32   TIME STEP    4
 
 SOLVING FOR HEAD 
                                                   Max.-Head-Change                         Max.-Flux-Residual
  Residual-Control   Outer-Iter.   Inner-Iter.     Column Row Layer    Maximum-Head-Change  Column Row Layer    Maximum-Flux-Residual          L2-NORM 
          0                 1           2             4    7     1      -0.1589713442E+00       4    7    1        -0.8323320329E+01      0.1881725243E+02
          0                 2           2             4    7     1       0.1546326841E-01       4    7    1         0.8323114500E+00      0.1881692615E+01
          0                 3           2             4    7     1      -0.1052994269E-02       4    7    1        -0.5826202142E-01      0.1317184734E+00
          0                 4           1             4    7     1       0.4189961336E-04       4    7    1         0.2382919100E-02      0.5387697720E-02

    ------------------------------------------------
       NWT REQUIRED            4 OUTER ITERATIONS 
       AND A TOTAL OF          7 INNER ITERATIONS.
    ------------------------------------------------

 NO OUTPUT CONTROL FOR STRESS PERIOD   32   TIME STEP    5
 
 SOLVING FOR HEAD 
                                                   Max.-Head-Change                         Max.-Flux-Residual
  Residual-Control   Outer-Iter.   Inner-Iter.     Column Row Layer    Maximum-Head-Change  Column Row Layer    Maximum-Flux-Residual          L2-NORM 
          0                 1           2             4    7     1      -0.1577197891E+00       4    7    1        -0.8259860112E+01      0.1855518446E+02
          0                 2           2             4    7     1       0.1534151721E-01       4    7    1         0.8259648122E+00      0.1855487092E+01
          0                 3           2             4    7     1      -0.1044703552E-02       4    7    1        -0.5781776241E-01      0.1298840952E+00
          0                 4           1             4    7     1       0.4156971753E-04       4    7    1         0.2364748850E-02      0.5312243409E-02

    ------------------------------------------------
       NWT REQUIRED            4 OUTER ITERATIONS 
       AND A TOTAL OF          7 INNER ITERATIONS.
    ------------------------------------------------

 NO OUTPUT CONTROL FOR STRESS PERIOD   32   TIME STEP    6
 
 SOLVING FOR HEAD 
                                                   Max.-Head-Change                         Max.-Flux-Residual
  Residual-Control   Outer-Iter.   Inner-Iter.     Column Row Layer    Maximum-Head-Change  Column Row Layer    Maximum-Flux-Residual          L2-NORM 
          0                 1           2             4    7     1      -0.1564415814E+00       4    7    1        -0.8194823756E+01      0.1830402711E+02
          0                 2           2             4    7     1       0.1521717486E-01       4    7    1         0.8194606557E+00      0.1830372239E+01
          0                 3           2             4    7     1      -0.1036236372E-02       4    7    1        -0.5736247617E-01      0.1281261312E+00
          0                 4           1             4    7     1       0.4123279971E-04       4    7    1         0.2346127579E-02      0.5240349223E-02

    ------------------------------------------------
       NWT REQUIRED            4 OUTER ITERATIONS 
       AND A TOTAL OF          7 INNER ITERATIONS.
    ------------------------------------------------

 NO OUTPUT CONTROL FOR STRESS PERIOD   32   TIME STEP    7
 
 SOLVING FOR HEAD 
                                                   Max.-Head-Change                         Max.-Flux-Residual
  Residual-Control   Outer-Iter.   Inner-Iter.     Column Row Layer    Maximum-Head-Change  Column Row Layer    Maximum-Flux-Residual          L2-NORM 
          0                 1           2             4    7     1      -0.1551403632E+00       4    7    1        -0.8128412841E+01      0.1806303422E+02
          0                 2           2             4    7     1       0.1509059551E-01       4    7    1         0.8128191309E+00      0.1806273674E+01
          0                 3           2             4    7     1      -0.1027616850E-02       4    7    1        -0.5689757335E-01      0.1264392712E+00
          0                 4           1             4    7     1       0.4088982112E-04       4    7    1         0.2327113021E-02      0.5171361843E-02

    ------------------------------------------------
       NWT REQUIRED            4 OUTER ITERATIONS 
       AND A TOTAL OF          7 INNER ITERATIONS.
    ------------------------------------------------

 NO OUTPUT CONTROL FOR STRESS PERIOD   32   TIME STEP    8
 
 SOLVING FOR HEAD 
                                                   Max.-Head-Change                         Max.-Flux-Residual
  Residual-Control   Outer-Iter.   Inner-Iter.     Column Row Layer    Maximum-Head-Change  Column Row Layer    Maximum-Flux-Residual          L2-NORM 
          0                 1           2             4    7     1      -0.1538190060E+00       4    7    1        -0.8060787030E+01      0.1783151994E+02
          0                 2           2             4    7     1       0.1496205838E-01       4    7    1         0.8060561972E+00      0.1783122884E+01
          0                 3           2             4    7     1      -0.1018863998E-02       4    7    1        -0.5642417111E-01      0.1248187567E+00
          0                 4           1             4    7     1       0.4054153665E-04       4    7    1         0.2307750838E-02      0.5105085209E-02

    ------------------------------------------------
       NWT REQUIRED            4 OUTER ITERATIONS 
       AND A TOTAL OF          7 INNER ITERATIONS.
    ------------------------------------------------

 NO OUTPUT CONTROL FOR STRESS PERIOD   32   TIME STEP    9
 
 SOLVING FOR HEAD 
                                                   Max.-Head-Change                         Max.-Flux-Residual
  Residual-Control   Outer-Iter.   Inner-Iter.     Column Row Layer    Maximum-Head-Change  Column Row Layer    Maximum-Flux-Residual          L2-NORM 
          0                 1           2             4    7     1      -0.1524808533E+00       4    7    1        -0.7992131696E+01      0.1760887405E+02
          0                 2           2             4    7     1       0.1483188859E-01       4    7    1         0.7991903848E+00      0.1760858893E+01
          0                 3           2             4    7     1      -0.1009999957E-02       4    7    1        -0.5594356668E-01      0.1232602992E+00
          0                 4           1             4    7     1       0.4018882816E-04       4    7    1         0.2288094067E-02      0.5041343261E-02

    ------------------------------------------------
       NWT REQUIRED            4 OUTER ITERATIONS 
       AND A TOTAL OF          7 INNER ITERATIONS.
    ------------------------------------------------

 NO OUTPUT CONTROL FOR STRESS PERIOD   32   TIME STEP   10
 
 SOLVING FOR HEAD 
                                                   Max.-Head-Change                         Max.-Flux-Residual
  Residual-Control   Outer-Iter.   Inner-Iter.     Column Row Layer    Maximum-Head-Change  Column Row Layer    Maximum-Flux-Residual          L2-NORM 
          0                 1           2             4    7     1      -0.1511286224E+00       4    7    1        -0.7922598320E+01      0.1739454018E+02
          0                 2           2             4    7     1       0.1470035037E-01       4    7    1         0.7922368357E+00      0.1739426055E+01
          0                 3           2             4    7     1      -0.1001042721E-02       4    7    1        -0.5545682003E-01      0.1217600128E+00
          0                 4           1             4    7     1       0.3983241107E-04       4    7    1         0.2268186083E-02      0.4979980398E-02

    ------------------------------------------------
       NWT REQUIRED            4 OUTER ITERATIONS 
       AND A TOTAL OF          7 INNER ITERATIONS.
    ------------------------------------------------

 NO OUTPUT CONTROL FOR STRESS PERIOD   32   TIME STEP   11
 
 SOLVING FOR HEAD 
                                                   Max.-Head-Change                         Max.-Flux-Residual
  Residual-Control   Outer-Iter.   Inner-Iter.     Column Row Layer    Maximum-Head-Change  Column Row Layer    Maximum-Flux-Residual          L2-NORM 
          0                 1           2             4    7     1      -0.1497649814E+00       4    7    1        -0.7852335087E+01      0.1718802148E+02
          0                 2           2             4    7     1       0.1456770317E-01       4    7    1         0.7852103624E+00      0.1718774720E+01
          0                 3           2             4    7     1      -0.9920099596E-03       4    7    1        -0.5496496809E-01      0.1203144377E+00
          0                 4           1             4    7     1       0.3947298903E-04       4    7    1         0.2248069314E-02      0.4920860388E-02

    ------------------------------------------------
       NWT REQUIRED            4 OUTER ITERATIONS 
       AND A TOTAL OF          7 INNER ITERATIONS.
    ------------------------------------------------

 NO OUTPUT CONTROL FOR STRESS PERIOD   32   TIME STEP   12
 
 SOLVING FOR HEAD 
                                                   Max.-Head-Change                         Max.-Flux-Residual
  Residual-Control   Outer-Iter.   Inner-Iter.     Column Row Layer    Maximum-Head-Change  Column Row Layer    Maximum-Flux-Residual          L2-NORM 
          0                 1           2             4    7     1      -0.1483923999E+00       4    7    1        -0.7781480343E+01      0.1698883076E+02
          0                 2           2             4    7     1       0.1443418567E-01       4    7    1         0.7781247939E+00      0.1698814191E+01
          0                 3           2             4    7     1      -0.9829179252E-03       4    7    1        -0.5446897900E-01      0.1189172106E+00
          0                 4           1             4    7     1       0.3911120849E-04       4    7    1         0.2227783329E-02      0.4863710595E-02

    ------------------------------------------------
       NWT REQUIRED            4 OUTER ITERATIONS 
       AND A TOTAL OF          7 INNER ITERATIONS.
    ------------------------------------------------

 NO OUTPUT CONTROL FOR STRESS PERIOD   32   TIME STEP   13
 
 SOLVING FOR HEAD 
                                                   Max.-Head-Change                         Max.-Flux-Residual
  Residual-Control   Outer-Iter.   Inner-Iter.     Column Row Layer    Maximum-Head-Change  Column Row Layer    Maximum-Flux-Residual          L2-NORM 
          0                 1           2             4    7     1      -0.1470130497E+00       4    7    1        -0.7710154939E+01      0.1679659228E+02
          0                 2           2             4    7     1       0.1430001345E-01       4    7    1         0.7709922106E+00      0.1679632866E+01
          0                 3           2             4    7     1      -0.9737812995E-03       4    7    1        -0.5396969834E-01      0.1175745278E+00
          0                 4           1             4    7     1       0.3874765361E-04       4    7    1         0.2207362724E-02      0.4808797849E-02

    ------------------------------------------------
       NWT REQUIRED            4 OUTER ITERATIONS 
       AND A TOTAL OF          7 INNER ITERATIONS.
    ------------------------------------------------

 NO OUTPUT CONTROL FOR STRESS PERIOD   32   TIME STEP   14
 
 SOLVING FOR HEAD 
                                                   Max.-Head-Change                         Max.-Flux-Residual
  Residual-Control   Outer-Iter.   Inner-Iter.     Column Row Layer    Maximum-Head-Change  Column Row Layer    Maximum-Flux-Residual          L2-NORM 
          0                 1           2             4    7     1      -0.1456291956E+00       4    7    1        -0.7638485808E+01      0.1661090379E+02
          0                 2           2             4    7     1       0.1416540232E-01       4    7    1         0.7638253006E+00      0.1661064524E+01
          0                 3           2             4    7     1      -0.9646147790E-03       4    7    1        -0.5346801439E-01      0.1162747443E+00
          0                 4           1             4    7     1       0.3838290922E-04       4    7    1         0.2186843812E-02      0.4755639043E-02

    ------------------------------------------------
       NWT REQUIRED            4 OUTER ITERATIONS 
       AND A TOTAL OF          7 INNER ITERATIONS.
    ------------------------------------------------

 NO OUTPUT CONTROL FOR STRESS PERIOD   32   TIME STEP   15
 
 SOLVING FOR HEAD 
                                                   Max.-Head-Change                         Max.-Flux-Residual
  Residual-Control   Outer-Iter.   Inner-Iter.     Column Row Layer    Maximum-Head-Change  Column Row Layer    Maximum-Flux-Residual          L2-NORM 
          0                 1           2             4    7     1      -0.1442426689E+00       4    7    1        -0.7566576056E+01      0.1643136794E+02
          0                 2           2             4    7     1       0.1403053184E-01       4    7    1         0.7566343703E+00      0.1643111445E+01
          0                 3           2             4    7     1      -0.9554305922E-03       4    7    1        -0.5296464864E-01      0.1150180347E+00
          0                 4           1             4    7     1       0.3801746221E-04       4    7    1         0.2166256139E-02      0.4704239636E-02

    ------------------------------------------------
       NWT REQUIRED            4 OUTER ITERATIONS 
       AND A TOTAL OF          7 INNER ITERATIONS.
    ------------------------------------------------

 NO OUTPUT CONTROL FOR STRESS PERIOD   32   TIME STEP   16
 
 SOLVING FOR HEAD 
                                                   Max.-Head-Change                         Max.-Flux-Residual
  Residual-Control   Outer-Iter.   Inner-Iter.     Column Row Layer    Maximum-Head-Change  Column Row Layer    Maximum-Flux-Residual          L2-NORM 
          0                 1           2             4    7     1      -0.1428554283E+00       4    7    1        -0.7494535119E+01      0.1625765991E+02
          0                 2           2             4    7     1       0.1389559246E-01       4    7    1         0.7494303590E+00      0.1625741138E+01
          0                 3           2             4    7     1      -0.9462417079E-03       4    7    1        -0.5246036684E-01      0.1138021199E+00
          0                 4           1             4    7     1       0.3765182743E-04       4    7    1         0.2145630976E-02      0.4654542498E-02

    ------------------------------------------------
       NWT REQUIRED            4 OUTER ITERATIONS 
       AND A TOTAL OF          7 INNER ITERATIONS.
    ------------------------------------------------

 NO OUTPUT CONTROL FOR STRESS PERIOD   32   TIME STEP   17
 
 SOLVING FOR HEAD 
                                                   Max.-Head-Change                         Max.-Flux-Residual
  Residual-Control   Outer-Iter.   Inner-Iter.     Column Row Layer    Maximum-Head-Change  Column Row Layer    Maximum-Flux-Residual          L2-NORM 
          0                 1           2             4    7     1      -0.1414688790E+00       4    7    1        -0.7422442728E+01      0.1608946620E+02
          0                 2           2             4    7     1       0.1376072083E-01       4    7    1         0.7422212362E+00      0.1608922262E+01
          0                 3           2             4    7     1      -0.9370574319E-03       4    7    1        -0.5195572692E-01      0.1126247972E+00
          0                 4           1             4    7     1       0.3728637662E-04       4    7    1         0.2124991179E-02      0.4606355519E-02

    ------------------------------------------------
       NWT REQUIRED            4 OUTER ITERATIONS 
       AND A TOTAL OF          7 INNER ITERATIONS.
    ------------------------------------------------

 NO OUTPUT CONTROL FOR STRESS PERIOD   32   TIME STEP   18
 
 SOLVING FOR HEAD 
                                                   Max.-Head-Change                         Max.-Flux-Residual
  Residual-Control   Outer-Iter.   Inner-Iter.     Column Row Layer    Maximum-Head-Change  Column Row Layer    Maximum-Flux-Residual          L2-NORM 
          0                 1           2             4    7     1      -0.1400848418E+00       4    7    1        -0.7350400841E+01      0.1592650718E+02
          0                 2           2             4    7     1       0.1362609400E-01       4    7    1         0.7350171941E+00      0.1592626850E+01
          0                 3           2             4    7     1      -0.9278898221E-03       4    7    1        -0.5145144237E-01      0.1114841178E+00
          0                 4           1             4    7     1       0.3692158918E-04       4    7    1         0.2104365927E-02      0.4559702357E-02

    ------------------------------------------------
       NWT REQUIRED            4 OUTER ITERATIONS 
       AND A TOTAL OF          7 INNER ITERATIONS.
    ------------------------------------------------

 NO OUTPUT CONTROL FOR STRESS PERIOD   32   TIME STEP   19
 
 SOLVING FOR HEAD 
                                                   Max.-Head-Change                         Max.-Flux-Residual
  Residual-Control   Outer-Iter.   Inner-Iter.     Column Row Layer    Maximum-Head-Change  Column Row Layer    Maximum-Flux-Residual          L2-NORM 
          0                 1           2             4    7     1      -0.1387047235E+00       4    7    1        -0.7278489315E+01      0.1576851445E+02
          0                 2           2             4    7     1       0.1349184877E-01       4    7    1         0.7278262150E+00      0.1576828051E+01
          0                 3           2             4    7     1      -0.9187481939E-03       4    7    1        -0.5094807197E-01      0.1103781949E+00
          0                 4           1             4    7     1       0.3655783558E-04       4    7    1         0.2083778062E-02      0.4514471986E-02

    ------------------------------------------------
       NWT REQUIRED            4 OUTER ITERATIONS 
       AND A TOTAL OF          7 INNER ITERATIONS.
    ------------------------------------------------

 NO OUTPUT CONTROL FOR STRESS PERIOD   32   TIME STEP   20
 
 SOLVING FOR HEAD 
                                                   Max.-Head-Change                         Max.-Flux-Residual
  Residual-Control   Outer-Iter.   Inner-Iter.     Column Row Layer    Maximum-Head-Change  Column Row Layer    Maximum-Flux-Residual          L2-NORM 
          0                 1           2             4    7     1      -0.1373296855E+00       4    7    1        -0.7206773831E+01      0.1561524020E+02
          0                 2           2             4    7     1       0.1335809805E-01       4    7    1         0.7206548641E+00      0.1561501112E+01
          0                 3           2             4    7     1      -0.9096402370E-03       4    7    1        -0.5044607534E-01      0.1093053174E+00
          0                 4           1             4    7     1       0.3619542149E-04       4    7    1         0.2063246370E-02      0.4470590914E-02

    ------------------------------------------------
       NWT REQUIRED            4 OUTER ITERATIONS 
       AND A TOTAL OF          7 INNER ITERATIONS.
    ------------------------------------------------

 NO OUTPUT CONTROL FOR STRESS PERIOD   32   TIME STEP   21
 
 SOLVING FOR HEAD 
                                                   Max.-Head-Change                         Max.-Flux-Residual
  Residual-Control   Outer-Iter.   Inner-Iter.     Column Row Layer    Maximum-Head-Change  Column Row Layer    Maximum-Flux-Residual          L2-NORM 
          0                 1           2             4    7     1      -0.1359609133E+00       4    7    1        -0.7135321868E+01      0.1546645725E+02
          0                 2           2             4    7     1       0.1322495716E-01       4    7    1         0.7135098866E+00      0.1546623288E+01
          0                 3           2             4    7     1      -0.9005738028E-03       4    7    1        -0.4994592462E-01      0.1082638670E+00
          0                 4           1             4    7     1       0.3583465983E-04       4    7    1         0.2042790188E-02      0.4427997042E-02

    ------------------------------------------------
       NWT REQUIRED            4 OUTER ITERATIONS 
       AND A TOTAL OF          7 INNER ITERATIONS.
    ------------------------------------------------

 NO OUTPUT CONTROL FOR STRESS PERIOD   32   TIME STEP   22
 
 SOLVING FOR HEAD 
                                                   Max.-Head-Change                         Max.-Flux-Residual
  Residual-Control   Outer-Iter.   Inner-Iter.     Column Row Layer    Maximum-Head-Change  Column Row Layer    Maximum-Flux-Residual          L2-NORM 
          0                 1           2             4    7     1      -0.1345996190E+00       4    7    1        -0.7064202170E+01      0.1532194947E+02
          0                 2           2             4    7     1       0.1309254392E-01       4    7    1         0.7063981543E+00      0.1532172971E+01
          0                 3           2             4    7     1      -0.8915569173E-03       4    7    1        -0.4944810090E-01      0.1072523429E+00
          0                 4           1             4    7     1       0.3547586950E-04       4    7    1         0.2022429175E-02      0.4386628014E-02

    ------------------------------------------------
       NWT REQUIRED            4 OUTER ITERATIONS 
       AND A TOTAL OF          7 INNER ITERATIONS.
    ------------------------------------------------

 NO OUTPUT CONTROL FOR STRESS PERIOD   32   TIME STEP   23
 
 SOLVING FOR HEAD 
                                                   Max.-Head-Change                         Max.-Flux-Residual
  Residual-Control   Outer-Iter.   Inner-Iter.     Column Row Layer    Maximum-Head-Change  Column Row Layer    Maximum-Flux-Residual          L2-NORM 
          0                 1           2             4    7     1      -0.1332467788E+00       4    7    1        -0.6993470306E+01      0.1518152421E+02
          0                 2           2             4    7     1       0.1296095327E-01       4    7    1         0.6993252217E+00      0.1518130905E+01
          0                 3           2             4    7     1      -0.8825960448E-03       4    7    1        -0.4895299301E-01      0.1062693958E+00
          0                 4           1             4    7     1       0.3511930827E-04       4    7    1         0.2002179255E-02      0.4346423352E-02

    ------------------------------------------------
       NWT REQUIRED            4 OUTER ITERATIONS 
       AND A TOTAL OF          7 INNER ITERATIONS.
    ------------------------------------------------

 NO OUTPUT CONTROL FOR STRESS PERIOD   32   TIME STEP   24
 
 SOLVING FOR HEAD 
                                                   Max.-Head-Change                         Max.-Flux-Residual
  Residual-Control   Outer-Iter.   Inner-Iter.     Column Row Layer    Maximum-Head-Change  Column Row Layer    Maximum-Flux-Residual          L2-NORM 
          0                 1           2             4    7     1      -0.1319032766E+00       4    7    1        -0.6923176894E+01      0.1504499508E+02
          0                 2           2             4    7     1       0.1283027116E-01       4    7    1         0.6922961486E+00      0.1504478441E+01
          0                 3           2             4    7     1      -0.8736970383E-03       4    7    1        -0.4846095514E-01      0.1053137202E+00
          0                 4           1             4    7     1       0.3476520847E-04       4    7    1         0.1982054883E-02      0.4307336657E-02

    ------------------------------------------------
       NWT REQUIRED            4 OUTER ITERATIONS 
       AND A TOTAL OF          7 INNER ITERATIONS.
    ------------------------------------------------

 NO OUTPUT CONTROL FOR STRESS PERIOD   32   TIME STEP   25
 
 SOLVING FOR HEAD 
                                                   Max.-Head-Change                         Max.-Flux-Residual
  Residual-Control   Outer-Iter.   Inner-Iter.     Column Row Layer    Maximum-Head-Change  Column Row Layer    Maximum-Flux-Residual          L2-NORM 
          0                 1           2             4    7     1      -0.1305697794E+00       4    7    1        -0.6853360512E+01      0.1491218634E+02
          0                 2           2             4    7     1       0.1270056245E-01       4    7    1         0.6853147908E+00      0.1491198010E+01
          0                 3           2             4    7     1      -0.8648643146E-03       4    7    1        -0.4797225722E-01      0.1043840866E+00
          0                 4           1             4    7     1       0.3441374647E-04       4    7    1         0.1962067122E-02      0.4269313812E-02

    ------------------------------------------------
       NWT REQUIRED            4 OUTER ITERATIONS 
       AND A TOTAL OF          7 INNER ITERATIONS.
    ------------------------------------------------

 NO OUTPUT CONTROL FOR STRESS PERIOD   32   TIME STEP   26
 
 SOLVING FOR HEAD 
                                                   Max.-Head-Change                         Max.-Flux-Residual
  Residual-Control   Outer-Iter.   Inner-Iter.     Column Row Layer    Maximum-Head-Change  Column Row Layer    Maximum-Flux-Residual          L2-NORM 
          0                 1           2             4    7     1      -0.1292472761E+00       4    7    1        -0.6784077509E+01      0.1478294387E+02
          0                 2           2             4    7     1       0.1257192333E-01       4    7    1         0.6783867813E+00      0.1478296761E+01
          0                 3           2             4    7     1      -0.8561044247E-03       4    7    1        -0.4748729360E-01      0.1034809937E+00
          0                 4           1             4    7     1       0.3406518189E-04       4    7    1         0.1942232078E-02      0.4232377799E-02

    ------------------------------------------------
       NWT REQUIRED            4 OUTER ITERATIONS 
       AND A TOTAL OF          7 INNER ITERATIONS.
    ------------------------------------------------

 NO OUTPUT CONTROL FOR STRESS PERIOD   32   TIME STEP   27
 
 SOLVING FOR HEAD 
                                                   Max.-Head-Change                         Max.-Flux-Residual
  Residual-Control   Outer-Iter.   Inner-Iter.     Column Row Layer    Maximum-Head-Change  Column Row Layer    Maximum-Flux-Residual          L2-NORM 
          0                 1           2             4    7     1      -0.1279362679E+00       4    7    1        -0.6715357389E+01      0.1465708848E+02
          0                 2           2             4    7     1       0.1244440242E-01       4    7    1         0.6715150689E+00      0.1465689202E+01
          0                 3           2             4    7     1      -0.8474206804E-03       4    7    1        -0.4700627070E-01      0.1025984629E+00
          0                 4           1             4    7     1       0.3371964804E-04       4    7    1         0.1922558237E-02      0.4196281595E-02

    ------------------------------------------------
       NWT REQUIRED            4 OUTER ITERATIONS 
       AND A TOTAL OF          7 INNER ITERATIONS.
    ------------------------------------------------

 NO OUTPUT CONTROL FOR STRESS PERIOD   32   TIME STEP   28
 
 SOLVING FOR HEAD 
                                                   Max.-Head-Change                         Max.-Flux-Residual
  Residual-Control   Outer-Iter.   Inner-Iter.     Column Row Layer    Maximum-Head-Change  Column Row Layer    Maximum-Flux-Residual          L2-NORM 
          0                 1           2             4    7     1      -0.1266374625E+00       4    7    1        -0.6647240649E+01      0.1453448222E+02
          0                 2           2             4    7     1       0.1231806876E-01       4    7    1         0.6647037017E+00      0.1453483744E+01
          0                 3           2             4    7     1      -0.8388177811E-03       4    7    1        -0.4652947187E-01      0.1017440792E+00
          0                 4           1             4    7     1       0.3337733074E-04       4    7    1         0.1903057142E-02      0.4161337768E-02

    ------------------------------------------------
       NWT REQUIRED            4 OUTER ITERATIONS 
       AND A TOTAL OF          7 INNER ITERATIONS.
    ------------------------------------------------

 NO OUTPUT CONTROL FOR STRESS PERIOD   32   TIME STEP   29
 
 SOLVING FOR HEAD 
                                                   Max.-Head-Change                         Max.-Flux-Residual
  Residual-Control   Outer-Iter.   Inner-Iter.     Column Row Layer    Maximum-Head-Change  Column Row Layer    Maximum-Flux-Residual          L2-NORM 
          0                 1           2             4    7     1      -0.1253512278E+00       4    7    1        -0.6579749470E+01      0.1441496019E+02
          0                 2           2             4    7     1       0.1219295776E-01       4    7    1         0.6579548968E+00      0.1441477265E+01
          0                 3           2             4    7     1      -0.8302981402E-03       4    7    1        -0.4605705235E-01      0.1009036198E+00
          0                 4           1             4    7     1       0.3303832704E-04       4    7    1         0.1883735187E-02      0.4126962566E-02

    ------------------------------------------------
       NWT REQUIRED            4 OUTER ITERATIONS 
       AND A TOTAL OF          7 INNER ITERATIONS.
    ------------------------------------------------

 NO OUTPUT CONTROL FOR STRESS PERIOD   32   TIME STEP   30



 STREAM LISTING     PERIOD     32   STEP       30

 LAYER ROW COL. STREAM  RCH.  FLOW INTO     FLOW TO   FLOW OUT OF   OVRLND.     DIRECT     STREAM       STREAM     STREAM     STREAM   STREAMBED  STREAMBED
                SEG.NO.  NO.  STRM. RCH.    AQUIFER    STRM. RCH.    RUNOFF     PRECIP       ET          HEAD       DEPTH      WIDTH   CONDCTNC.   GRADIENT

   1    1    1     1     1    5.6248E+01  3.5874E-01   5.5890E+01  0.000E+00  0.000E+00  0.000E+00  1.09453E+03  1.479E+00  1.780E+01  8.009E-02  1.493E+00
   1    2    2     1     2    5.5890E+01  5.5549E-01   5.5334E+01  0.000E+00  0.000E+00  0.000E+00  1.08953E+03  1.473E+00  1.774E+01  1.242E-01  1.491E+00
   1    3    3     1     3    5.5334E+01  4.7367E-01   5.4860E+01  0.000E+00  0.000E+00  0.000E+00  1.08389E+03  1.467E+00  1.767E+01  1.060E-01  1.489E+00
   1    3    4     1     4    5.4860E+01  4.3612E-01   5.4424E+01  0.000E+00  0.000E+00  0.000E+00  1.07887E+03  1.461E+00  1.762E+01  9.777E-02  1.487E+00
   1    4    5     2     1    5.2424E+01  3.8056E-01   5.2044E+01  0.000E+00  0.000E+00  0.000E+00  1.07381E+03  1.879E+00  1.200E+01  7.800E-02  1.626E+00
   1    5    6     2     2    5.2044E+01  2.9230E-01   5.1751E+01  0.000E+00  0.000E+00  0.000E+00  1.06838E+03  1.872E+00  1.200E+01  6.000E-02  1.624E+00
   1    6    6     2     3    5.1751E+01  2.9192E-01   5.1459E+01  0.000E+00  0.000E+00  0.000E+00  1.06366E+03  1.865E+00  1.200E+01  6.000E-02  1.622E+00
   1    7    6     2     4    5.1459E+01  2.9154E-01   5.1168E+01  0.000E+00  0.000E+00  0.000E+00  1.05893E+03  1.859E+00  1.200E+01  6.000E-02  1.620E+00
   1    8    6     2     5    5.1168E+01  2.9116E-01   5.0877E+01  0.000E+00  0.000E+00  0.000E+00  1.05421E+03  1.853E+00  1.200E+01  6.000E-02  1.618E+00
   1    3    5     3     1    2.0000E+00  2.8252E-01   1.7175E+00  0.000E+00  0.000E+00  0.000E+00  1.07555E+03  1.909E+00  9.636E+00  7.227E-02  1.955E+00
   1    3    6     3     2    1.7175E+00  2.4905E-01   1.4684E+00  0.000E+00  0.000E+00  0.000E+00  1.07264E+03  1.727E+00  8.909E+00  6.682E-02  1.864E+00
   1    3    7     3     3    1.4684E+00  1.9718E-01   1.2712E+00  0.000E+00  0.000E+00  0.000E+00  1.06987E+03  1.555E+00  8.218E+00  5.547E-02  1.777E+00
   1    4    8     3     4    1.2712E+00  2.2567E-01   1.0456E+00  0.000E+00  0.000E+00  0.000E+00  1.06682E+03  1.364E+00  7.455E+00  6.709E-02  1.682E+00
   1    5    8     3     5    1.0456E+00  1.5790E-01   8.8768E-01  0.000E+00  0.000E+00  0.000E+00  1.06362E+03  1.164E+00  6.655E+00  4.991E-02  1.582E+00
   1    6    8     3     6    8.8768E-01  5.5980E-02   8.3170E-01  0.000E+00  0.000E+00  0.000E+00  1.06158E+03  1.036E+00  6.145E+00  1.844E-02  1.518E+00
   1    5   10     4     1    1.0000E+01  9.0919E-02   9.9091E+00  0.000E+00  0.000E+00  0.000E+00  1.07836E+03  6.368E-01  1.000E+01  2.500E-02  1.212E+00
   1    5    9     4     2    9.9091E+00  1.8158E-01   9.7275E+00  0.000E+00  0.000E+00  0.000E+00  1.07154E+03  6.315E-01  1.000E+01  5.000E-02  1.211E+00
   1    6    8     4     3    9.7275E+00  1.2689E-01   9.6006E+00  0.000E+00  0.000E+00  0.000E+00  1.06381E+03  6.256E-01  1.000E+01  3.500E-02  1.209E+00
   1    6    8     5     1    1.0432E+01  2.2686E-01   1.0205E+01  0.000E+00  0.000E+00  0.000E+00  1.05868E+03  6.790E-01  1.542E+01  6.166E-02  1.226E+00
   1    7    7     5     2    1.0205E+01  2.7894E-01   9.9265E+00  0.000E+00  0.000E+00  0.000E+00  1.05417E+03  6.732E-01  1.519E+01  7.594E-02  1.224E+00
   1    8    7     5     3    9.9265E+00  1.9221E-01   9.7343E+00  0.000E+00  0.000E+00  0.000E+00  1.04992E+03  6.676E-01  1.497E+01  5.241E-02  1.223E+00
   1    8    6     5     4    9.7343E+00  1.3577E-01   9.5985E+00  0.000E+00  0.000E+00  0.000E+00  1.04691E+03  6.637E-01  1.482E+01  3.706E-02  1.221E+00
   1    9    6     6     1    6.0475E+01  3.0428E-01   6.0171E+01  0.000E+00  0.000E+00  0.000E+00  1.04480E+03  2.071E+00  1.200E+01  6.000E-02  1.690E+00
   1   10    7     6     2    6.0171E+01  3.0391E-01   5.9867E+01  0.000E+00  0.000E+00  0.000E+00  1.04025E+03  2.065E+00  1.200E+01  6.000E-02  1.688E+00
   1   11    7     6     3    5.9867E+01  3.0353E-01   5.9564E+01  0.000E+00  0.000E+00  0.000E+00  1.03570E+03  2.059E+00  1.200E+01  6.000E-02  1.686E+00
   1   12    7     6     4    5.9564E+01  3.0315E-01   5.9260E+01  0.000E+00  0.000E+00  0.000E+00  1.03114E+03  2.053E+00  1.200E+01  6.000E-02  1.684E+00
   1   13    7     6     5    5.9260E+01  2.7152E-02   5.9233E+01  0.000E+00  0.000E+00  0.000E+00  1.02796E+03  2.049E+00  1.200E+01  2.400E-02  3.771E-01
   1   14    9     7     1    1.5000E+02  1.3547E+00   1.4865E+02  0.000E+00  0.000E+00  0.000E+00  1.03987E+03  2.288E+00  5.529E+01  5.593E-01  8.074E-01
   1   13    8     7     2    1.4865E+02  1.9129E+00   1.4673E+02  0.000E+00  0.000E+00  0.000E+00  1.03478E+03  2.279E+00  5.526E+01  6.148E-01  1.037E+00
   1   13    7     7     3    1.4673E+02  1.5982E+00   1.4513E+02  0.000E+00  0.000E+00  0.000E+00  1.02969E+03  2.270E+00  5.521E+01  5.584E-01  9.540E-01
   1   13    6     8     1    2.0437E+02  1.1886E+00   2.0318E+02  0.000E+00  0.000E+00  0.000E+00  1.02503E+03  3.160E+00  4.582E+01  4.669E-01  8.486E-01
   1   13    5     8     2    2.0318E+02  3.7238E-01   2.0281E+02  0.000E+00  0.000E+00  0.000E+00  1.01878E+03  3.155E+00  4.575E+01  4.662E-01  2.662E-01
   1   13    4     8     3    2.0281E+02 -1.8767E+00   2.0468E+02  0.000E+00  0.000E+00  0.000E+00  1.01253E+03  3.160E+00  4.581E+01  4.669E+00 -1.340E-01
   1   13    3     8     4    2.0468E+02 -3.3095E+00   2.0799E+02  0.000E+00  0.000E+00  0.000E+00  1.00630E+03  3.175E+00  4.603E+01  4.691E+00 -2.352E-01
   1   13    2     8     5    2.0799E+02 -2.4961E+00   2.1049E+02  0.000E+00  0.000E+00  0.000E+00  1.00007E+03  3.191E+00  4.627E+01  4.715E+00 -1.764E-01
   1   13    1     8     6    2.1049E+02 -1.9747E+00   2.1246E+02  0.000E+00  0.000E+00  0.000E+00  9.95079E+02  3.204E+00  4.646E+01  2.841E+00 -2.317E-01
   1    8    6     9     1    0.0000E+00  0.0000E+00   0.0000E+00  0.000E+00  0.000E+00  0.000E+00  1.07875E+03  0.000E+00  4.000E+00  0.000E+00  1.000E+00
   1    8    5     9     2    0.0000E+00  0.0000E+00   0.0000E+00  0.000E+00  0.000E+00  0.000E+00  1.07825E+03  0.000E+00  4.000E+00  0.000E+00  1.000E+00





UNSATURATED ZONE PACKAGE VOLUMETRIC BUDGET FOR  TIME STEP    30 STRESS PERIOD   32
  ------------------------------------------------------------------------------



     CUMULATIVE VOLUMES      L**3       RATES FOR THIS TIME STEP      L**3/T
     ------------------                 ------------------------

           IN:                                      IN:
           ---                                      ---
        INFILTRATION =  1113411903.6334          INFILTRATION =          60.8175

          OUT:                                     OUT:
          ----                                     ----
              UZF ET =  1112604984.8134                UZF ET =          60.8175
        UZF RECHARGE =       73224.0000          UZF RECHARGE =       0.0000E+00

            IN - OUT =      733694.8200              IN - OUT =       0.0000E+00

          STORAGE:                                 STORAGE:
          --------                                 --------
      STORAGE CHANGE =      733694.8611        STORAGE CHANGE =      -3.0708E-15

 PERCENT DISCREPANCY IS DIFFERENCE BETWEEN IN-OUT MINUS CHANGE IN STORAGE
 DIVIDED BY THE AVERAGE OF IN AND OUT TIMES 100

 PERCENT DISCREPANCY =           0.00     PERCENT DISCREPANCY =           0.00






1
  VOLUMETRIC BUDGET FOR AGRICULTURAL FIELDS AT  END OF TIME STEP   30, STRESS PERIOD  32
  ------------------------------------------------------------------------------

     CUMULATIVE VOLUMES      L**3       RATES FOR THIS TIME STEP      L**3/T
     ------------------                 ------------------------

           IN:                                      IN:
           ---                                      ---
               AG WELLS  =  1044238400.0000                 AG WELLS  =          59.9700
      DIVERSION SEGMENTS =           0.0000        DIVERSION SEGMENTS =           0.0000
       IRRIGATION PONDS  =           0.0000         IRRIGATION PONDS  =           0.0000
           GW IRRIGATION =           0.0000             GW IRRIGATION =           0.0000
           SW IRRIGATION =           0.0000             SW IRRIGATION =           0.0000
        SYSTEM LOSSES GW =           0.0000          SYSTEM LOSSES GW =           0.0000
        SYSTEM LOSSES SW =           0.0000          SYSTEM LOSSES SW =           0.0000

                TOTAL IN =  1044238400.0000                  TOTAL IN =          59.9700

          OUT:                                     OUT:
          ----                                     ----
               AG WELLS  =           0.0000                 AG WELLS  =           0.0000
      DIVERSION SEGMENTS =           0.0000        DIVERSION SEGMENTS =           0.0000
       IRRIGATION PONDS  =           0.0000         IRRIGATION PONDS  =           0.0000
           GW IRRIGATION =  1044238400.0000             GW IRRIGATION =          59.9700
           SW IRRIGATION =           0.0000             SW IRRIGATION =           0.0000
        SYSTEM LOSSES GW =           0.0000          SYSTEM LOSSES GW =           0.0000
        SYSTEM LOSSES SW =           0.0000          SYSTEM LOSSES SW =           0.0000

               TOTAL OUT =  1044238400.0000                 TOTAL OUT =          59.9700

                IN - OUT =           0.0000                  IN - OUT =           0.0000

     PERCENT DISCREPANCY =           0.00         PERCENT DISCREPANCY =           0.00



1
  VOLUMETRIC BUDGET FOR ENTIRE MODEL AT END OF TIME STEP   30, STRESS PERIOD  32
  ------------------------------------------------------------------------------

     CUMULATIVE VOLUMES      L**3       RATES FOR THIS TIME STEP      L**3/T
     ------------------                 ------------------------

           IN:                                      IN:
           ---                                      ---
             STORAGE     =  1369978240.0000               STORAGE     =          56.5844
       CONSTANT HEAD     =           0.0000         CONSTANT HEAD     =           0.0000
     HEAD DEP BOUNDS     =    23341456.0000       HEAD DEP BOUNDS     =           0.2870
      STREAM LEAKAGE     =  1001776000.0000        STREAM LEAKAGE     =          13.4418
        UZF RECHARGE     =       73223.9531          UZF RECHARGE     =           0.0000
               GW ET     =           0.0000                 GW ET     =           0.0000
     SURFACE LEAKAGE     =           0.0000       SURFACE LEAKAGE     =           0.0000
           AG WELLS      =           0.0000             AG WELLS      =           0.0000

                TOTAL IN =  2395168768.0000                  TOTAL IN =          70.3132

          OUT:                                     OUT:
          ----                                     ----
             STORAGE     =   478825024.0000               STORAGE     =           0.2876
       CONSTANT HEAD     =           0.0000         CONSTANT HEAD     =           0.0000
     HEAD DEP BOUNDS     =    23857198.0000       HEAD DEP BOUNDS     =           0.2954
      STREAM LEAKAGE     =   839892544.0000        STREAM LEAKAGE     =           9.6570
        UZF RECHARGE     =           0.0000          UZF RECHARGE     =           0.0000
               GW ET     =     8359262.5000                 GW ET     =           0.1034
     SURFACE LEAKAGE     =           0.0000       SURFACE LEAKAGE     =           0.0000
           AG WELLS      =  1044238400.0000             AG WELLS      =          59.9700

               TOTAL OUT =  2395172352.0000                 TOTAL OUT =          70.3134

                IN - OUT =       -3584.0000                  IN - OUT =      -1.9836E-04

     PERCENT DISCREPANCY =          -0.00         PERCENT DISCREPANCY =          -0.00






         TIME SUMMARY AT END OF TIME STEP   30 IN STRESS PERIOD   32
                    SECONDS     MINUTES      HOURS       DAYS        YEARS
                    -----------------------------------------------------------
   TIME STEP LENGTH  87667.      1461.1      24.352      1.0147     2.77799E-03
 STRESS PERIOD TIME 2.63000E+06  43833.      730.56      30.440     8.33397E-02
         TOTAL TIME 8.16164E+07 1.36027E+06  22671.      944.63      2.5863    
1
1
                            STRESS PERIOD NO.   33, LENGTH =   2630000.    
                            -----------------------------------------------

                              NUMBER OF TIME STEPS =    30

                               MULTIPLIER FOR DELT =     1.000

                            INITIAL TIME STEP SIZE =   87666.66    

 REUSING NON-PARAMETER GHB CELLS FROM LAST STRESS PERIOD

      2 GHB CELLS

 REUSING STREAM SEGMENT DATA FROM LAST STRESS PERIOD



            AREAL INFILTRATION RATE
 READING ON UNIT   19 WITH FORMAT: (FREE)              

            1           2           3           4           5           6           7           8           9          10
 ........................................................................................................................
   1   1.0000E-10  2.0000E-10   0.000       0.000       0.000       0.000       0.000       0.000       0.000       0.000    
   2   2.0000E-10  1.0000E-10  2.0000E-10   0.000       0.000      8.0000E-10  8.0000E-10  5.0000E-10   0.000       0.000    
   3    0.000      5.0000E-10  1.0000E-10  1.0000E-10  8.0000E-10  8.0000E-10  5.0000E-10  5.0000E-10   0.000       0.000    
   4   8.0000E-10  5.0000E-10  1.0000E-10  1.0000E-10  1.0000E-10  1.0000E-10  1.0000E-10  1.0000E-10  2.0000E-10   0.000    
   5   8.0000E-10  5.0000E-10  1.0000E-10  1.0000E-10  1.0000E-10  1.0000E-10  1.0000E-10  1.0000E-10  1.0000E-10  1.0000E-10
   6   8.0000E-10  5.0000E-10  5.0000E-10  2.0000E-10  2.0000E-10  1.0000E-10  1.0000E-10  1.0000E-10  1.0000E-10  5.0000E-10
   7   8.0000E-10  5.0000E-10  5.0000E-10  2.0000E-10  2.0000E-10  1.0000E-10  1.0000E-10  2.0000E-10  2.0000E-10   0.000    
   8    0.000      5.0000E-10  5.0000E-10  2.0000E-10  2.0000E-10  1.0000E-10  1.0000E-10  2.0000E-10  5.0000E-10   0.000    
   9    0.000      5.0000E-10  5.0000E-10  2.0000E-10  2.0000E-10  1.0000E-10  1.0000E-10  2.0000E-10  5.0000E-10   0.000    
  10    0.000      5.0000E-10  5.0000E-10  2.0000E-10  2.0000E-10  1.0000E-10  1.0000E-10  2.0000E-10  5.0000E-10  8.0000E-10
  11    0.000      1.0000E-10  1.0000E-10  1.0000E-10  1.0000E-10  1.0000E-10  1.0000E-10  2.0000E-10  5.0000E-10   0.000    
  12   1.0000E-10  1.0000E-10  1.0000E-10  1.0000E-10  1.0000E-10  1.0000E-10  1.0000E-10  1.0000E-10  2.0000E-10   0.000    
  13   1.0000E-10  1.0000E-10  2.0000E-10  2.0000E-10  2.0000E-10  2.0000E-10  2.0000E-10  1.0000E-10  1.0000E-10   0.000    
  14    0.000      2.0000E-10  5.0000E-10  5.0000E-10  5.0000E-10  5.0000E-10  5.0000E-10  2.0000E-10  1.0000E-10   0.000    
  15    0.000       0.000      8.0000E-10  8.0000E-10  8.0000E-10  8.0000E-10   0.000       0.000       0.000       0.000    

                  ET RATE =  3.250000E-07

 USING ET EXTINCTION DEPTH FROM PREVIOUS STRESS PERIOD. CURRENT PERIOD IS:      33

 USING EXTINCTION WATER CONTENT FROM PREVIOUS STRESS PERIOD. CURRENT PERIOD IS:      33

 USING AIR ENTRY PRESSURE FROM PREVIOUS STRESS PERIOD. CURRENT PERIOD IS:      33

 USING ROOT PRESSURE HEAD FROM PREVIOUS STRESS PERIOD. CURRENT PERIOD IS:      33

 USING ROOT ACTIVITY FROM PREVIOUS STRESS PERIOD. CURRENT PERIOD IS:      33

 PROCESSING AG STRESS PERIOD DATA

 READING AG STRESS PERIOD DATA

 READING IRRIGATION SEGMENT

 READING IRRIGATION WELL

 READING SUPPLEMENTAL WELL

 NO IRRPOND OR REUSING IRRPOND DATA FROM LAST STRESS PERIOD

 END PROCESSING AG STRESS PERIOD DATA OPTIONS
 
 SOLVING FOR HEAD 
                                                   Max.-Head-Change                         Max.-Flux-Residual
  Residual-Control   Outer-Iter.   Inner-Iter.     Column Row Layer    Maximum-Head-Change  Column Row Layer    Maximum-Flux-Residual          L2-NORM 
          0                 1           2             4    7     1      -0.8816089496E-01       4    7    1        -0.4637917443E+01      0.1025808526E+02
          0                 2           2             4    7     1       0.8575470456E-02       4    7    1         0.4637795415E+00      0.1025799847E+01
          0                 3           2             4    7     1      -0.5839595126E-03       4    7    1        -0.3246469739E-01      0.7180608037E-01
          0                 4           1             4    7     1       0.2323628751E-04       4    7    1         0.1327807439E-02      0.2936870645E-02

    ------------------------------------------------
       NWT REQUIRED            4 OUTER ITERATIONS 
       AND A TOTAL OF          7 INNER ITERATIONS.
    ------------------------------------------------

 NO OUTPUT CONTROL FOR STRESS PERIOD   33   TIME STEP    1
 
 SOLVING FOR HEAD 
                                                   Max.-Head-Change                         Max.-Flux-Residual
  Residual-Control   Outer-Iter.   Inner-Iter.     Column Row Layer    Maximum-Head-Change  Column Row Layer    Maximum-Flux-Residual          L2-NORM 
          0                 1           2             4    7     1      -0.8708702802E-01       4    7    1        -0.4580602388E+01      0.1021237352E+02
          0                 2           2             4    7     1       0.8471018205E-02       4    7    1         0.4580484253E+00      0.1021185810E+01
          0                 3           2             4    7     1      -0.5768466455E-03       4    7    1        -0.3206351538E-01      0.7147917899E-01
          0                 4           1             4    7     1       0.2295326035E-04       4    7    1         0.1311399095E-02      0.2923293463E-02

    ------------------------------------------------
       NWT REQUIRED            4 OUTER ITERATIONS 
       AND A TOTAL OF          7 INNER ITERATIONS.
    ------------------------------------------------

 NO OUTPUT CONTROL FOR STRESS PERIOD   33   TIME STEP    2
 
 SOLVING FOR HEAD 
                                                   Max.-Head-Change                         Max.-Flux-Residual
  Residual-Control   Outer-Iter.   Inner-Iter.     Column Row Layer    Maximum-Head-Change  Column Row Layer    Maximum-Flux-Residual          L2-NORM 
          0                 1           2             4    7     1      -0.8604139601E-01       4    7    1        -0.4524805130E+01      0.1014805208E+02
          0                 2           2             4    7     1       0.8369312202E-02       4    7    1         0.4524690727E+00      0.1014763475E+01
          0                 3           2             4    7     1      -0.5699207901E-03       4    7    1        -0.3167295700E-01      0.7103053648E-01
          0                 4           1             4    7     1       0.2267767435E-04       4    7    1         0.1295425239E-02      0.2904980464E-02

    ------------------------------------------------
       NWT REQUIRED            4 OUTER ITERATIONS 
       AND A TOTAL OF          7 INNER ITERATIONS.
    ------------------------------------------------

 NO OUTPUT CONTROL FOR STRESS PERIOD   33   TIME STEP    3
 
 SOLVING FOR HEAD 
                                                   Max.-Head-Change                         Max.-Flux-Residual
  Residual-Control   Outer-Iter.   Inner-Iter.     Column Row Layer    Maximum-Head-Change  Column Row Layer    Maximum-Flux-Residual          L2-NORM 
          0                 1           2             4    7     1      -0.8502312631E-01       4    7    1        -0.4470479152E+01      0.1008565960E+02
          0                 2           2             4    7     1       0.8270267579E-02       4    7    1         0.4470368326E+00      0.1008491428E+01
          0                 3           2             4    7     1      -0.5631761676E-03       4    7    1        -0.3129269667E-01      0.7059245903E-01
          0                 4           1             4    7     1       0.2240929971E-04       4    7    1         0.1279872595E-02      0.2887116921E-02

    ------------------------------------------------
       NWT REQUIRED            4 OUTER ITERATIONS 
       AND A TOTAL OF          7 INNER ITERATIONS.
    ------------------------------------------------

 NO OUTPUT CONTROL FOR STRESS PERIOD   33   TIME STEP    4
 
 SOLVING FOR HEAD 
                                                   Max.-Head-Change                         Max.-Flux-Residual
  Residual-Control   Outer-Iter.   Inner-Iter.     Column Row Layer    Maximum-Head-Change  Column Row Layer    Maximum-Flux-Residual          L2-NORM 
          0                 1           2             4    7     1      -0.8403109739E-01       4    7    1        -0.4417564725E+01      0.1002496017E+02
          0                 2           2             4    7     1       0.8173671187E-02       4    7    1         0.4417457327E+00      0.1002428457E+01
          0                 3           2             4    7     1      -0.5565982616E-03       4    7    1        -0.3092231631E-01      0.7016806983E-01
          0                 4           1             4    7     1       0.2214755895E-04       4    7    1         0.1264724032E-02      0.2869741033E-02

    ------------------------------------------------
       NWT REQUIRED            4 OUTER ITERATIONS 
       AND A TOTAL OF          7 INNER ITERATIONS.
    ------------------------------------------------

 NO OUTPUT CONTROL FOR STRESS PERIOD   33   TIME STEP    5
 
 SOLVING FOR HEAD 
                                                   Max.-Head-Change                         Max.-Flux-Residual
  Residual-Control   Outer-Iter.   Inner-Iter.     Column Row Layer    Maximum-Head-Change  Column Row Layer    Maximum-Flux-Residual          L2-NORM 
          0                 1           2             4    7     1      -0.8306497718E-01       4    7    1        -0.4366030963E+01      0.9965853773E+01
          0                 2           2             4    7     1       0.8079803043E-02       4    7    1         0.4365926865E+00      0.9965585200E+00
          0                 3           2             4    7     1      -0.5502061409E-03       4    7    1        -0.3056159975E-01      0.6975741605E-01
          0                 4           1             4    7     1       0.2189321065E-04       4    7    1         0.1249970713E-02      0.2852944507E-02

    ------------------------------------------------
       NWT REQUIRED            4 OUTER ITERATIONS 
       AND A TOTAL OF          7 INNER ITERATIONS.
    ------------------------------------------------

 NO OUTPUT CONTROL FOR STRESS PERIOD   33   TIME STEP    6
 
 SOLVING FOR HEAD 
                                                   Max.-Head-Change                         Max.-Flux-Residual
  Residual-Control   Outer-Iter.   Inner-Iter.     Column Row Layer    Maximum-Head-Change  Column Row Layer    Maximum-Flux-Residual          L2-NORM 
          0                 1           2             4    7     1      -0.8212335122E-01       4    7    1        -0.4315822279E+01      0.9908077654E+01
          0                 2           2             4    7     1       0.7988214961E-02       4    7    1         0.4315721338E+00      0.9908818470E+00
          0                 3           2             4    7     1      -0.5439692869E-03       4    7    1        -0.3021015792E-01      0.6936031942E-01
          0                 4           1             4    7     1       0.2164504067E-04       4    7    1         0.1235596746E-02      0.2836753932E-02

    ------------------------------------------------
       NWT REQUIRED            4 OUTER ITERATIONS 
       AND A TOTAL OF          7 INNER ITERATIONS.
    ------------------------------------------------

 NO OUTPUT CONTROL FOR STRESS PERIOD   33   TIME STEP    7
 
 SOLVING FOR HEAD 
                                                   Max.-Head-Change                         Max.-Flux-Residual
  Residual-Control   Outer-Iter.   Inner-Iter.     Column Row Layer    Maximum-Head-Change  Column Row Layer    Maximum-Flux-Residual          L2-NORM 
          0                 1           2             4    7     1      -0.8120553352E-01       4    7    1        -0.4266896367E+01      0.9851473047E+01
          0                 2           2             4    7     1       0.7898938947E-02       4    7    1         0.4266798450E+00      0.9851258951E+00
          0                 3           2             4    7     1      -0.5378898778E-03       4    7    1        -0.2986769469E-01      0.6895759601E-01
          0                 4           1             4    7     1       0.2140313560E-04       4    7    1         0.1221589991E-02      0.2820297538E-02

    ------------------------------------------------
       NWT REQUIRED            4 OUTER ITERATIONS 
       AND A TOTAL OF          7 INNER ITERATIONS.
    ------------------------------------------------

 NO OUTPUT CONTROL FOR STRESS PERIOD   33   TIME STEP    8
 
 SOLVING FOR HEAD 
                                                   Max.-Head-Change                         Max.-Flux-Residual
  Residual-Control   Outer-Iter.   Inner-Iter.     Column Row Layer    Maximum-Head-Change  Column Row Layer    Maximum-Flux-Residual          L2-NORM 
          0                 1           2             4    7     1      -0.8031076702E-01       4    7    1        -0.4219212388E+01      0.9796008908E+01
          0                 2           2             4    7     1       0.7811906817E-02       4    7    1         0.4219117371E+00      0.9795815765E+00
          0                 3           2             4    7     1      -0.5319632704E-03       4    7    1        -0.2953392423E-01      0.6856968936E-01
          0                 4           1             4    7     1       0.2116731052E-04       4    7    1         0.1207938765E-02      0.2804435158E-02

    ------------------------------------------------
       NWT REQUIRED            4 OUTER ITERATIONS 
       AND A TOTAL OF          7 INNER ITERATIONS.
    ------------------------------------------------

 NO OUTPUT CONTROL FOR STRESS PERIOD   33   TIME STEP    9
 
 SOLVING FOR HEAD 
                                                   Max.-Head-Change                         Max.-Flux-Residual
  Residual-Control   Outer-Iter.   Inner-Iter.     Column Row Layer    Maximum-Head-Change  Column Row Layer    Maximum-Flux-Residual          L2-NORM 
          0                 1           2             4    7     1      -0.7943804949E-01       4    7    1        -0.4172716329E+01      0.9741690671E+01
          0                 2           2             4    7     1       0.7727019277E-02       4    7    1         0.4172624091E+00      0.9741515555E+00
          0                 3           2             4    7     1      -0.5261827042E-03       4    7    1        -0.2920846853E-01      0.6818970476E-01
          0                 4           1             4    7     1       0.2093729651E-04       4    7    1         0.1194627618E-02      0.2788894863E-02

    ------------------------------------------------
       NWT REQUIRED            4 OUTER ITERATIONS 
       AND A TOTAL OF          7 INNER ITERATIONS.
    ------------------------------------------------

 NO OUTPUT CONTROL FOR STRESS PERIOD   33   TIME STEP   10
 
 SOLVING FOR HEAD 
                                                   Max.-Head-Change                         Max.-Flux-Residual
  Residual-Control   Outer-Iter.   Inner-Iter.     Column Row Layer    Maximum-Head-Change  Column Row Layer    Maximum-Flux-Residual          L2-NORM 
          0                 1           2             4    7     1      -0.7858669043E-01       4    7    1        -0.4127370787E+01      0.9688471785E+01
          0                 2           2             4    7     1       0.7628856215E-02       4    7    1         0.4117289778E+00      0.9687538003E+00
          0                 3           2             4    7     1      -0.5194980572E-03       4    7    1        -0.2882112098E-01      0.6781197805E-01
          0                 4           1             4    7     1       0.2067130847E-04       4    7    1         0.1178785116E-02      0.2773462703E-02

    ------------------------------------------------
       NWT REQUIRED            4 OUTER ITERATIONS 
       AND A TOTAL OF          7 INNER ITERATIONS.
    ------------------------------------------------

 NO OUTPUT CONTROL FOR STRESS PERIOD   33   TIME STEP   11
 
 SOLVING FOR HEAD 
                                                   Max.-Head-Change                         Max.-Flux-Residual
  Residual-Control   Outer-Iter.   Inner-Iter.     Column Row Layer    Maximum-Head-Change  Column Row Layer    Maximum-Flux-Residual          L2-NORM 
          0                 1           2             4    7     1      -0.7779383220E-01       4    7    1        -0.4083958304E+01      0.9636364735E+01
          0                 2           2             4    7     1       0.7567094598E-02       4    7    1         0.4083874955E+00      0.9636219082E+00
          0                 3           2             4    7     1      -0.5152923014E-03       4    7    1        -0.2858721591E-01      0.6745288943E-01
          0                 4           1             4    7     1       0.2050395749E-04       4    7    1         0.1169218400E-02      0.2758771426E-02

    ------------------------------------------------
       NWT REQUIRED            4 OUTER ITERATIONS 
       AND A TOTAL OF          7 INNER ITERATIONS.
    ------------------------------------------------

 NO OUTPUT CONTROL FOR STRESS PERIOD   33   TIME STEP   12
 
 SOLVING FOR HEAD 
                                                   Max.-Head-Change                         Max.-Flux-Residual
  Residual-Control   Outer-Iter.   Inner-Iter.     Column Row Layer    Maximum-Head-Change  Column Row Layer    Maximum-Flux-Residual          L2-NORM 
          0                 1           2             4    7     1      -0.7700326026E-01       4    7    1        -0.4041942122E+01      0.9585303091E+01
          0                 2           2             4    7     1       0.7490196696E-02       4    7    1         0.4041860938E+00      0.9585169065E+00
          0                 3           2             4    7     1      -0.5100558080E-03       4    7    1        -0.2829311561E-01      0.6709561259E-01
          0                 4           1             4    7     1       0.2029559277E-04       4    7    1         0.1157189682E-02      0.2744164038E-02

    ------------------------------------------------
       NWT REQUIRED            4 OUTER ITERATIONS 
       AND A TOTAL OF          7 INNER ITERATIONS.
    ------------------------------------------------

 NO OUTPUT CONTROL FOR STRESS PERIOD   33   TIME STEP   13
 
 SOLVING FOR HEAD 
                                                   Max.-Head-Change                         Max.-Flux-Residual
  Residual-Control   Outer-Iter.   Inner-Iter.     Column Row Layer    Maximum-Head-Change  Column Row Layer    Maximum-Flux-Residual          L2-NORM 
          0                 1           2             4    7     1      -0.7623015884E-01       4    7    1        -0.4000863187E+01      0.9535208787E+01
          0                 2           2             4    7     1       0.7414998087E-02       4    7    1         0.4000784092E+00      0.9535084991E+00
          0                 3           2             4    7     1      -0.5049350311E-03       4    7    1        -0.2800557558E-01      0.6674513375E-01
          0                 4           1             4    7     1       0.2009183234E-04       4    7    1         0.1145429284E-02      0.2729858787E-02

    ------------------------------------------------
       NWT REQUIRED            4 OUTER ITERATIONS 
       AND A TOTAL OF          7 INNER ITERATIONS.
    ------------------------------------------------

 NO OUTPUT CONTROL FOR STRESS PERIOD   33   TIME STEP   14
 
 SOLVING FOR HEAD 
                                                   Max.-Head-Change                         Max.-Flux-Residual
  Residual-Control   Outer-Iter.   Inner-Iter.     Column Row Layer    Maximum-Head-Change  Column Row Layer    Maximum-Flux-Residual          L2-NORM 
          0                 1           2             4    7     1      -0.7547394253E-01       4    7    1        -0.3960690136E+01      0.9486049906E+01
          0                 2           2             4    7     1       0.7341441833E-02       4    7    1         0.3960613056E+00      0.9485935095E+00
          0                 3           2             4    7     1      -0.4999260941E-03       4    7    1        -0.2772437630E-01      0.6640114202E-01
          0                 4           1             4    7     1       0.1989252252E-04       4    7    1         0.1133928238E-02      0.2715781191E-02

    ------------------------------------------------
       NWT REQUIRED            4 OUTER ITERATIONS 
       AND A TOTAL OF          7 INNER ITERATIONS.
    ------------------------------------------------

 NO OUTPUT CONTROL FOR STRESS PERIOD   33   TIME STEP   15
 
 SOLVING FOR HEAD 
                                                   Max.-Head-Change                         Max.-Flux-Residual
  Residual-Control   Outer-Iter.   Inner-Iter.     Column Row Layer    Maximum-Head-Change  Column Row Layer    Maximum-Flux-Residual          L2-NORM 
          0                 1           2             4    7     1      -0.7473417895E-01       4    7    1        -0.3921399842E+01      0.9437799519E+01
          0                 2           2             4    7     1       0.7269485875E-02       4    7    1         0.3921324706E+00      0.9437692527E+00
          0                 3           2             4    7     1      -0.4950261319E-03       4    7    1        -0.2744935588E-01      0.6606351515E-01
          0                 4           1             4    7     1       0.1969754863E-04       4    7    1         0.1122679894E-02      0.2701984202E-02

    ------------------------------------------------
       NWT REQUIRED            4 OUTER ITERATIONS 
       AND A TOTAL OF          7 INNER ITERATIONS.
    ------------------------------------------------

 NO OUTPUT CONTROL FOR STRESS PERIOD   33   TIME STEP   16
 
 SOLVING FOR HEAD 
                                                   Max.-Head-Change                         Max.-Flux-Residual
  Residual-Control   Outer-Iter.   Inner-Iter.     Column Row Layer    Maximum-Head-Change  Column Row Layer    Maximum-Flux-Residual          L2-NORM 
          0                 1           2             4    7     1      -0.7401031498E-01       4    7    1        -0.3882962654E+01      0.9390422720E+01
          0                 2           2             4    7     1       0.7199076417E-02       4    7    1         0.3882889395E+00      0.9390322579E+00
          0                 3           2             4    7     1      -0.4902314818E-03       4    7    1        -0.2718030682E-01      0.6573196694E-01
          0                 4           1             4    7     1       0.1950676470E-04       4    7    1         0.1111675776E-02      0.2688419121E-02

    ------------------------------------------------
       NWT REQUIRED            4 OUTER ITERATIONS 
       AND A TOTAL OF          7 INNER ITERATIONS.
    ------------------------------------------------

 NO OUTPUT CONTROL FOR STRESS PERIOD   33   TIME STEP   17
 
 SOLVING FOR HEAD 
                                                   Max.-Head-Change                         Max.-Flux-Residual
  Residual-Control   Outer-Iter.   Inner-Iter.     Column Row Layer    Maximum-Head-Change  Column Row Layer    Maximum-Flux-Residual          L2-NORM 
          0                 1           2             4    7     1      -0.7330195135E-01       4    7    1        -0.3845357118E+01      0.9343900743E+01
          0                 2           2             4    7     1       0.7130174623E-02       4    7    1         0.3845285670E+00      0.9343843873E+00
          0                 3           2             4    7     1      -0.4855394988E-03       4    7    1        -0.2691707891E-01      0.6540667016E-01
          0                 4           1             4    7     1       0.1932006653E-04       4    7    1         0.1100909747E-02      0.2675117711E-02

    ------------------------------------------------
       NWT REQUIRED            4 OUTER ITERATIONS 
       AND A TOTAL OF          7 INNER ITERATIONS.
    ------------------------------------------------

 NO OUTPUT CONTROL FOR STRESS PERIOD   33   TIME STEP   18
 
 SOLVING FOR HEAD 
                                                   Max.-Head-Change                         Max.-Flux-Residual
  Residual-Control   Outer-Iter.   Inner-Iter.     Column Row Layer    Maximum-Head-Change  Column Row Layer    Maximum-Flux-Residual          L2-NORM 
          0                 1           2             4    7     1      -0.7260830699E-01       4    7    1        -0.3808540860E+01      0.9298201270E+01
          0                 2           2             4    7     1       0.7062704522E-02       4    7    1         0.3808471161E+00      0.9298112628E+00
          0                 3           2             4    7     1      -0.4809450098E-03       4    7    1        -0.2665937558E-01      0.6508659530E-01
          0                 4           1             4    7     1       0.1913724759E-04       4    7    1         0.1090369678E-02      0.2662025829E-02

    ------------------------------------------------
       NWT REQUIRED            4 OUTER ITERATIONS 
       AND A TOTAL OF          7 INNER ITERATIONS.
    ------------------------------------------------

 NO OUTPUT CONTROL FOR STRESS PERIOD   33   TIME STEP   19
 
 SOLVING FOR HEAD 
                                                   Max.-Head-Change                         Max.-Flux-Residual
  Residual-Control   Outer-Iter.   Inner-Iter.     Column Row Layer    Maximum-Head-Change  Column Row Layer    Maximum-Flux-Residual          L2-NORM 
          0                 1           2             4    7     1      -0.7192929375E-01       4    7    1        -0.3772509495E+01      0.9253299423E+01
          0                 2           2             4    7     1       0.6996657541E-02       4    7    1         0.3772441484E+00      0.9253215379E+00
          0                 3           2             4    7     1      -0.4764474312E-03       4    7    1        -0.2640716615E-01      0.6477234054E-01
          0                 4           1             4    7     1       0.1895828484E-04       4    7    1         0.1080054301E-02      0.2649177829E-02

    ------------------------------------------------
       NWT REQUIRED            4 OUTER ITERATIONS 
       AND A TOTAL OF          7 INNER ITERATIONS.
    ------------------------------------------------

 NO OUTPUT CONTROL FOR STRESS PERIOD   33   TIME STEP   20
 
 SOLVING FOR HEAD 
                                                   Max.-Head-Change                         Max.-Flux-Residual
  Residual-Control   Outer-Iter.   Inner-Iter.     Column Row Layer    Maximum-Head-Change  Column Row Layer    Maximum-Flux-Residual          L2-NORM 
          0                 1           2             4    7     1      -0.7126415832E-01       4    7    1        -0.3737222339E+01      0.9209180150E+01
          0                 2           2             4    7     1       0.6931960409E-02       4    7    1         0.3737155960E+00      0.9209100408E+00
          0                 3           2             4    7     1      -0.4720417726E-03       4    7    1        -0.2616016582E-01      0.6446355923E-01
          0                 4           1             4    7     1       0.1878297947E-04       4    7    1         0.1069951978E-02      0.2636547895E-02

    ------------------------------------------------
       NWT REQUIRED            4 OUTER ITERATIONS 
       AND A TOTAL OF          7 INNER ITERATIONS.
    ------------------------------------------------

 NO OUTPUT CONTROL FOR STRESS PERIOD   33   TIME STEP   21
 
 SOLVING FOR HEAD 
                                                   Max.-Head-Change                         Max.-Flux-Residual
  Residual-Control   Outer-Iter.   Inner-Iter.     Column Row Layer    Maximum-Head-Change  Column Row Layer    Maximum-Flux-Residual          L2-NORM 
          0                 1           2             4    7     1      -0.7061271479E-01       4    7    1        -0.3702669218E+01      0.9165823629E+01
          0                 2           2             4    7     1       0.6868595044E-02       4    7    1         0.3702604415E+00      0.9165747509E+00
          0                 3           2             4    7     1      -0.4677268037E-03       4    7    1        -0.2591830341E-01      0.6416011389E-01
          0                 4           1             4    7     1       0.1861128369E-04       4    7    1         0.1060059816E-02      0.2624140731E-02

    ------------------------------------------------
       NWT REQUIRED            4 OUTER ITERATIONS 
       AND A TOTAL OF          7 INNER ITERATIONS.
    ------------------------------------------------

 NO OUTPUT CONTROL FOR STRESS PERIOD   33   TIME STEP   22
 
 SOLVING FOR HEAD 
                                                   Max.-Head-Change                         Max.-Flux-Residual
  Residual-Control   Outer-Iter.   Inner-Iter.     Column Row Layer    Maximum-Head-Change  Column Row Layer    Maximum-Flux-Residual          L2-NORM 
          0                 1           2             4    7     1      -0.6997424470E-01       4    7    1        -0.3668811611E+01      0.9123201451E+01
          0                 2           2             4    7     1       0.6806491565E-02       4    7    1         0.3668748332E+00      0.9123128698E+00
          0                 3           2             4    7     1      -0.4634977650E-03       4    7    1        -0.2568130929E-01      0.6386180254E-01
          0                 4           1             4    7     1       0.1844300617E-04       4    7    1         0.1050366741E-02      0.2611942351E-02

    ------------------------------------------------
       NWT REQUIRED            4 OUTER ITERATIONS 
       AND A TOTAL OF          7 INNER ITERATIONS.
    ------------------------------------------------

 NO OUTPUT CONTROL FOR STRESS PERIOD   33   TIME STEP   23
 
 SOLVING FOR HEAD 
                                                   Max.-Head-Change                         Max.-Flux-Residual
  Residual-Control   Outer-Iter.   Inner-Iter.     Column Row Layer    Maximum-Head-Change  Column Row Layer    Maximum-Flux-Residual          L2-NORM 
          0                 1           2             4    7     1      -0.6934872543E-01       4    7    1        -0.3635648359E+01      0.9081304110E+01
          0                 2           2             4    7     1       0.6745647772E-02       4    7    1         0.3635586553E+00      0.9081234482E+00
          0                 3           2             4    7     1      -0.4593545070E-03       4    7    1        -0.2544917534E-01      0.6356854738E-01
          0                 4           1             4    7     1       0.1827814183E-04       4    7    1         0.1040872459E-02      0.2599941890E-02

    ------------------------------------------------
       NWT REQUIRED            4 OUTER ITERATIONS 
       AND A TOTAL OF          7 INNER ITERATIONS.
    ------------------------------------------------

 NO OUTPUT CONTROL FOR STRESS PERIOD   33   TIME STEP   24
 
 SOLVING FOR HEAD 
                                                   Max.-Head-Change                         Max.-Flux-Residual
  Residual-Control   Outer-Iter.   Inner-Iter.     Column Row Layer    Maximum-Head-Change  Column Row Layer    Maximum-Flux-Residual          L2-NORM 
          0                 1           2             4    7     1      -0.6873547077E-01       4    7    1        -0.3603142197E+01      0.9040108290E+01
          0                 2           2             4    7     1       0.6685996920E-02       4    7    1         0.3603081815E+00      0.9040041469E+00
          0                 3           2             4    7     1      -0.4552924847E-03       4    7    1        -0.2522164075E-01      0.6328022695E-01
          0                 4           1             4    7     1       0.1811651051E-04       4    7    1         0.1031566286E-02      0.2588155197E-02

    ------------------------------------------------
       NWT REQUIRED            4 OUTER ITERATIONS 
       AND A TOTAL OF          7 INNER ITERATIONS.
    ------------------------------------------------

 NO OUTPUT CONTROL FOR STRESS PERIOD   33   TIME STEP   25
 
 SOLVING FOR HEAD 
                                                   Max.-Head-Change                         Max.-Flux-Residual
  Residual-Control   Outer-Iter.   Inner-Iter.     Column Row Layer    Maximum-Head-Change  Column Row Layer    Maximum-Flux-Residual          L2-NORM 
          0                 1           2             4    7     1      -0.6813408951E-01       4    7    1        -0.3571271983E+01      0.8999595873E+01
          0                 2           2             4    7     1       0.6627500958E-02       4    7    1         0.3571212979E+00      0.8999531638E+00
          0                 3           2             4    7     1      -0.4513091062E-03       4    7    1        -0.2499855748E-01      0.6299667430E-01
          0                 4           1             4    7     1       0.1795800824E-04       4    7    1         0.1022442166E-02      0.2576559530E-02

    ------------------------------------------------
       NWT REQUIRED            4 OUTER ITERATIONS 
       AND A TOTAL OF          7 INNER ITERATIONS.
    ------------------------------------------------

 NO OUTPUT CONTROL FOR STRESS PERIOD   33   TIME STEP   26
 
 SOLVING FOR HEAD 
                                                   Max.-Head-Change                         Max.-Flux-Residual
  Residual-Control   Outer-Iter.   Inner-Iter.     Column Row Layer    Maximum-Head-Change  Column Row Layer    Maximum-Flux-Residual          L2-NORM 
          0                 1           2             4    7     1      -0.6754446503E-01       4    7    1        -0.3540031859E+01      0.8959751126E+01
          0                 2           2             4    7     1       0.6570148543E-02       4    7    1         0.3539974189E+00      0.8959689120E+00
          0                 3           2             4    7     1      -0.4474036002E-03       4    7    1        -0.2477988459E-01      0.6271778907E-01
          0                 4           1             4    7     1       0.1780260451E-04       4    7    1         0.1013498446E-02      0.2565155549E-02

    ------------------------------------------------
       NWT REQUIRED            4 OUTER ITERATIONS 
       AND A TOTAL OF          7 INNER ITERATIONS.
    ------------------------------------------------

 NO OUTPUT CONTROL FOR STRESS PERIOD   33   TIME STEP   27
 
 SOLVING FOR HEAD 
                                                   Max.-Head-Change                         Max.-Flux-Residual
  Residual-Control   Outer-Iter.   Inner-Iter.     Column Row Layer    Maximum-Head-Change  Column Row Layer    Maximum-Flux-Residual          L2-NORM 
          0                 1           2             4    7     1      -0.6696609491E-01       4    7    1        -0.3509394133E+01      0.8920564820E+01
          0                 2           2             4    7     1       0.6513890809E-02       4    7    1         0.3509337753E+00      0.8920504814E+00
          0                 3           2             4    7     1      -0.4435726384E-03       4    7    1        -0.2456542823E-01      0.6244350707E-01
          0                 4           1             4    7     1       0.1765016682E-04       4    7    1         0.1004727164E-02      0.2553940142E-02

    ------------------------------------------------
       NWT REQUIRED            4 OUTER ITERATIONS 
       AND A TOTAL OF          7 INNER ITERATIONS.
    ------------------------------------------------

 NO OUTPUT CONTROL FOR STRESS PERIOD   33   TIME STEP   28
 
 SOLVING FOR HEAD 
                                                   Max.-Head-Change                         Max.-Flux-Residual
  Residual-Control   Outer-Iter.   Inner-Iter.     Column Row Layer    Maximum-Head-Change  Column Row Layer    Maximum-Flux-Residual          L2-NORM 
          0                 1           2             4    7     1      -0.6639875655E-01       4    7    1        -0.3479347182E+01      0.8882016814E+01
          0                 2           2             4    7     1       0.6458706103E-02       4    7    1         0.3479292051E+00      0.8881958690E+00
          0                 3           2             4    7     1      -0.4398147461E-03       4    7    1        -0.2435510703E-01      0.6217369652E-01
          0                 4           1             4    7     1       0.1750063679E-04       4    7    1         0.9961250134E-03      0.2542909079E-02

    ------------------------------------------------
       NWT REQUIRED            4 OUTER ITERATIONS 
       AND A TOTAL OF          7 INNER ITERATIONS.
    ------------------------------------------------

 NO OUTPUT CONTROL FOR STRESS PERIOD   33   TIME STEP   29
 
 SOLVING FOR HEAD 
                                                   Max.-Head-Change                         Max.-Flux-Residual
  Residual-Control   Outer-Iter.   Inner-Iter.     Column Row Layer    Maximum-Head-Change  Column Row Layer    Maximum-Flux-Residual          L2-NORM 
          0                 1           2             4    7     1      -0.6584197006E-01       4    7    1        -0.3449865039E+01      0.8844085397E+01
          0                 2           2             4    7     1       0.6404547749E-02       4    7    1         0.3449811117E+00      0.8844028202E+00
          0                 3           2             4    7     1      -0.4361267456E-03       4    7    1        -0.2414873926E-01      0.6190815392E-01
          0                 4           1             4    7     1       0.1735388778E-04       4    7    1         0.9876845677E-03      0.2532042314E-02

    ------------------------------------------------
       NWT REQUIRED            4 OUTER ITERATIONS 
       AND A TOTAL OF          7 INNER ITERATIONS.
    ------------------------------------------------

 NO OUTPUT CONTROL FOR STRESS PERIOD   33   TIME STEP   30



 STREAM LISTING     PERIOD     33   STEP       30

 LAYER ROW COL. STREAM  RCH.  FLOW INTO     FLOW TO   FLOW OUT OF   OVRLND.     DIRECT     STREAM       STREAM     STREAM     STREAM   STREAMBED  STREAMBED
                SEG.NO.  NO.  STRM. RCH.    AQUIFER    STRM. RCH.    RUNOFF     PRECIP       ET          HEAD       DEPTH      WIDTH   CONDCTNC.   GRADIENT

   1    1    1     1     1    4.5749E+01  3.2289E-01   4.5426E+01  0.000E+00  0.000E+00  0.000E+00  1.09442E+03  1.372E+00  1.641E+01  7.386E-02  1.457E+00
   1    2    2     1     2    4.5426E+01  5.0022E-01   4.4925E+01  0.000E+00  0.000E+00  0.000E+00  1.08943E+03  1.369E+00  1.636E+01  1.145E-01  1.456E+00
   1    3    3     1     3    4.4925E+01  4.2678E-01   4.4499E+01  0.000E+00  0.000E+00  0.000E+00  1.08378E+03  1.366E+00  1.629E+01  9.776E-02  1.455E+00
   1    3    4     1     4    4.4499E+01  3.9314E-01   4.4106E+01  0.000E+00  0.000E+00  0.000E+00  1.07877E+03  1.363E+00  1.624E+01  9.011E-02  1.454E+00
   1    4    5     2     1    4.2106E+01  3.6245E-01   4.1743E+01  0.000E+00  0.000E+00  0.000E+00  1.07358E+03  1.647E+00  1.200E+01  7.800E-02  1.549E+00
   1    5    6     2     2    4.1743E+01  2.7835E-01   4.1465E+01  0.000E+00  0.000E+00  0.000E+00  1.06815E+03  1.639E+00  1.200E+01  6.000E-02  1.546E+00
   1    6    6     2     3    4.1465E+01  2.7796E-01   4.1187E+01  0.000E+00  0.000E+00  0.000E+00  1.06343E+03  1.633E+00  1.200E+01  6.000E-02  1.544E+00
   1    7    6     2     4    4.1187E+01  2.7756E-01   4.0909E+01  0.000E+00  0.000E+00  0.000E+00  1.05870E+03  1.626E+00  1.200E+01  6.000E-02  1.542E+00
   1    8    6     2     5    4.0909E+01  2.7716E-01   4.0632E+01  0.000E+00  0.000E+00  0.000E+00  1.05398E+03  1.619E+00  1.200E+01  6.000E-02  1.540E+00
   1    3    5     3     1    2.0000E+00  2.8252E-01   1.7175E+00  0.000E+00  0.000E+00  0.000E+00  1.07555E+03  1.909E+00  9.636E+00  7.227E-02  1.955E+00
   1    3    6     3     2    1.7175E+00  2.4905E-01   1.4684E+00  0.000E+00  0.000E+00  0.000E+00  1.07264E+03  1.727E+00  8.909E+00  6.682E-02  1.864E+00
   1    3    7     3     3    1.4684E+00  1.9718E-01   1.2712E+00  0.000E+00  0.000E+00  0.000E+00  1.06987E+03  1.555E+00  8.218E+00  5.547E-02  1.777E+00
   1    4    8     3     4    1.2712E+00  2.2567E-01   1.0456E+00  0.000E+00  0.000E+00  0.000E+00  1.06682E+03  1.364E+00  7.455E+00  6.709E-02  1.682E+00
   1    5    8     3     5    1.0456E+00  1.5790E-01   8.8768E-01  0.000E+00  0.000E+00  0.000E+00  1.06362E+03  1.164E+00  6.655E+00  4.991E-02  1.582E+00
   1    6    8     3     6    8.8768E-01  5.5980E-02   8.3170E-01  0.000E+00  0.000E+00  0.000E+00  1.06158E+03  1.036E+00  6.145E+00  1.844E-02  1.518E+00
   1    5   10     4     1    1.0000E+01  9.0919E-02   9.9091E+00  0.000E+00  0.000E+00  0.000E+00  1.07836E+03  6.368E-01  1.000E+01  2.500E-02  1.212E+00
   1    5    9     4     2    9.9091E+00  1.8158E-01   9.7275E+00  0.000E+00  0.000E+00  0.000E+00  1.07154E+03  6.315E-01  1.000E+01  5.000E-02  1.211E+00
   1    6    8     4     3    9.7275E+00  1.2689E-01   9.6006E+00  0.000E+00  0.000E+00  0.000E+00  1.06381E+03  6.256E-01  1.000E+01  3.500E-02  1.209E+00
   1    6    8     5     1    1.0432E+01  2.2686E-01   1.0205E+01  0.000E+00  0.000E+00  0.000E+00  1.05868E+03  6.790E-01  1.542E+01  6.166E-02  1.226E+00
   1    7    7     5     2    1.0205E+01  2.7894E-01   9.9265E+00  0.000E+00  0.000E+00  0.000E+00  1.05417E+03  6.732E-01  1.519E+01  7.594E-02  1.224E+00
   1    8    7     5     3    9.9265E+00  1.9221E-01   9.7343E+00  0.000E+00  0.000E+00  0.000E+00  1.04992E+03  6.676E-01  1.497E+01  5.241E-02  1.223E+00
   1    8    6     5     4    9.7343E+00  1.3577E-01   9.5985E+00  0.000E+00  0.000E+00  0.000E+00  1.04691E+03  6.637E-01  1.482E+01  3.706E-02  1.221E+00
   1    9    6     6     1    5.0231E+01  2.9116E-01   4.9939E+01  0.000E+00  0.000E+00  0.000E+00  1.04458E+03  1.853E+00  1.200E+01  6.000E-02  1.618E+00
   1   10    7     6     2    4.9939E+01  2.9077E-01   4.9649E+01  0.000E+00  0.000E+00  0.000E+00  1.04003E+03  1.846E+00  1.200E+01  6.000E-02  1.615E+00
   1   11    7     6     3    4.9649E+01  2.9038E-01   4.9358E+01  0.000E+00  0.000E+00  0.000E+00  1.03548E+03  1.840E+00  1.200E+01  6.000E-02  1.613E+00
   1   12    7     6     4    4.9358E+01  2.8999E-01   4.9068E+01  0.000E+00  0.000E+00  0.000E+00  1.03092E+03  1.833E+00  1.200E+01  6.000E-02  1.611E+00
   1   13    7     6     5    4.9068E+01  2.2085E-02   4.9046E+01  0.000E+00  0.000E+00  0.000E+00  1.02774E+03  1.830E+00  1.200E+01  2.400E-02  3.067E-01
   1   14    9     7     1    1.5000E+02  1.3563E+00   1.4864E+02  0.000E+00  0.000E+00  0.000E+00  1.03987E+03  2.288E+00  5.529E+01  5.593E-01  8.084E-01
   1   13    8     7     2    1.4864E+02  1.9159E+00   1.4673E+02  0.000E+00  0.000E+00  0.000E+00  1.03478E+03  2.279E+00  5.526E+01  6.148E-01  1.039E+00
   1   13    7     7     3    1.4673E+02  1.6028E+00   1.4512E+02  0.000E+00  0.000E+00  0.000E+00  1.02969E+03  2.270E+00  5.521E+01  5.584E-01  9.568E-01
   1   13    6     8     1    1.9417E+02  1.1484E+00   1.9302E+02  0.000E+00  0.000E+00  0.000E+00  1.02497E+03  3.100E+00  4.495E+01  4.580E-01  8.358E-01
   1   13    5     8     2    1.9302E+02  3.4829E-01   1.9267E+02  0.000E+00  0.000E+00  0.000E+00  1.01872E+03  3.095E+00  4.488E+01  4.573E-01  2.539E-01
   1   13    4     8     3    1.9267E+02 -1.9338E+00   1.9461E+02  0.000E+00  0.000E+00  0.000E+00  1.01247E+03  3.100E+00  4.495E+01  4.580E+00 -1.407E-01
   1   13    3     8     4    1.9461E+02 -3.4167E+00   1.9802E+02  0.000E+00  0.000E+00  0.000E+00  1.00624E+03  3.116E+00  4.518E+01  4.604E+00 -2.474E-01
   1   13    2     8     5    1.9802E+02 -2.5244E+00   2.0055E+02  0.000E+00  0.000E+00  0.000E+00  1.00001E+03  3.134E+00  4.544E+01  4.630E+00 -1.817E-01
   1   13    1     8     6    2.0055E+02 -1.9931E+00   2.0254E+02  0.000E+00  0.000E+00  0.000E+00  9.95022E+02  3.147E+00  4.563E+01  2.790E+00 -2.381E-01
   1    8    6     9     1    0.0000E+00  0.0000E+00   0.0000E+00  0.000E+00  0.000E+00  0.000E+00  1.07875E+03  0.000E+00  4.000E+00  0.000E+00  1.000E+00
   1    8    5     9     2    0.0000E+00  0.0000E+00   0.0000E+00  0.000E+00  0.000E+00  0.000E+00  1.07825E+03  0.000E+00  4.000E+00  0.000E+00  1.000E+00





UNSATURATED ZONE PACKAGE VOLUMETRIC BUDGET FOR  TIME STEP    30 STRESS PERIOD   33
  ------------------------------------------------------------------------------



     CUMULATIVE VOLUMES      L**3       RATES FOR THIS TIME STEP      L**3/T
     ------------------                 ------------------------

           IN:                                      IN:
           ---                                      ---
        INFILTRATION =  1243774421.0098          INFILTRATION =          49.5675

          OUT:                                     OUT:
          ----                                     ----
              UZF ET =  1242967502.1898                UZF ET =          49.5675
        UZF RECHARGE =       73224.0000          UZF RECHARGE =       0.0000E+00

            IN - OUT =      733694.8200              IN - OUT =       0.0000E+00

          STORAGE:                                 STORAGE:
          --------                                 --------
      STORAGE CHANGE =      733694.8611        STORAGE CHANGE =       1.8259E-15

 PERCENT DISCREPANCY IS DIFFERENCE BETWEEN IN-OUT MINUS CHANGE IN STORAGE
 DIVIDED BY THE AVERAGE OF IN AND OUT TIMES 100

 PERCENT DISCREPANCY =           0.00     PERCENT DISCREPANCY =           0.00






1
  VOLUMETRIC BUDGET FOR AGRICULTURAL FIELDS AT  END OF TIME STEP   30, STRESS PERIOD  33
  ------------------------------------------------------------------------------

     CUMULATIVE VOLUMES      L**3       RATES FOR THIS TIME STEP      L**3/T
     ------------------                 ------------------------

           IN:                                      IN:
           ---                                      ---
               AG WELLS  =  1172371584.0000                 AG WELLS  =          48.7200
      DIVERSION SEGMENTS =           0.0000        DIVERSION SEGMENTS =           0.0000
       IRRIGATION PONDS  =           0.0000         IRRIGATION PONDS  =           0.0000
           GW IRRIGATION =           0.0000             GW IRRIGATION =           0.0000
           SW IRRIGATION =           0.0000             SW IRRIGATION =           0.0000
        SYSTEM LOSSES GW =           0.0000          SYSTEM LOSSES GW =           0.0000
        SYSTEM LOSSES SW =           0.0000          SYSTEM LOSSES SW =           0.0000

                TOTAL IN =  1172371584.0000                  TOTAL IN =          48.7200

          OUT:                                     OUT:
          ----                                     ----
               AG WELLS  =           0.0000                 AG WELLS  =           0.0000
      DIVERSION SEGMENTS =           0.0000        DIVERSION SEGMENTS =           0.0000
       IRRIGATION PONDS  =           0.0000         IRRIGATION PONDS  =           0.0000
           GW IRRIGATION =  1172371584.0000             GW IRRIGATION =          48.7200
           SW IRRIGATION =           0.0000             SW IRRIGATION =           0.0000
        SYSTEM LOSSES GW =           0.0000          SYSTEM LOSSES GW =           0.0000
        SYSTEM LOSSES SW =           0.0000          SYSTEM LOSSES SW =           0.0000

               TOTAL OUT =  1172371584.0000                 TOTAL OUT =          48.7200

                IN - OUT =           0.0000                  IN - OUT =           0.0000

     PERCENT DISCREPANCY =           0.00         PERCENT DISCREPANCY =           0.00



1
  VOLUMETRIC BUDGET FOR ENTIRE MODEL AT END OF TIME STEP   30, STRESS PERIOD  33
  ------------------------------------------------------------------------------

     CUMULATIVE VOLUMES      L**3       RATES FOR THIS TIME STEP      L**3/T
     ------------------                 ------------------------

           IN:                                      IN:
           ---                                      ---
             STORAGE     =  1490740992.0000               STORAGE     =          45.7430
       CONSTANT HEAD     =           0.0000         CONSTANT HEAD     =           0.0000
     HEAD DEP BOUNDS     =    24096536.0000       HEAD DEP BOUNDS     =           0.2872
      STREAM LEAKAGE     =  1036157120.0000        STREAM LEAKAGE     =          13.0742
        UZF RECHARGE     =       73223.9531          UZF RECHARGE     =           0.0000
               GW ET     =           0.0000                 GW ET     =           0.0000
     SURFACE LEAKAGE     =           0.0000       SURFACE LEAKAGE     =           0.0000
           AG WELLS      =           0.0000             AG WELLS      =           0.0000

                TOTAL IN =  2551067904.0000                  TOTAL IN =          59.1043

          OUT:                                     OUT:
          ----                                     ----
             STORAGE     =   479421824.0000               STORAGE     =           0.2226
       CONSTANT HEAD     =           0.0000         CONSTANT HEAD     =           0.0000
     HEAD DEP BOUNDS     =    24631836.0000       HEAD DEP BOUNDS     =           0.2940
      STREAM LEAKAGE     =   866273792.0000        STREAM LEAKAGE     =           9.8680
        UZF RECHARGE     =           0.0000          UZF RECHARGE     =           0.0000
               GW ET     =     8372419.5000                 GW ET     =           0.0000
     SURFACE LEAKAGE     =           0.0000       SURFACE LEAKAGE     =           0.0000
           AG WELLS      =  1172371584.0000             AG WELLS      =          48.7200

               TOTAL OUT =  2551071488.0000                 TOTAL OUT =          59.1045

                IN - OUT =       -3584.0000                  IN - OUT =      -1.6785E-04

     PERCENT DISCREPANCY =          -0.00         PERCENT DISCREPANCY =          -0.00






         TIME SUMMARY AT END OF TIME STEP   30 IN STRESS PERIOD   33
                    SECONDS     MINUTES      HOURS       DAYS        YEARS
                    -----------------------------------------------------------
   TIME STEP LENGTH  87667.      1461.1      24.352      1.0147     2.77799E-03
 STRESS PERIOD TIME 2.63000E+06  43833.      730.56      30.440     8.33397E-02
         TOTAL TIME 8.42463E+07 1.40410E+06  23402.      975.07      2.6696    
1
1
                            STRESS PERIOD NO.   34, LENGTH =   2630000.    
                            -----------------------------------------------

                              NUMBER OF TIME STEPS =    30

                               MULTIPLIER FOR DELT =     1.000

                            INITIAL TIME STEP SIZE =   87666.66    

 REUSING NON-PARAMETER GHB CELLS FROM LAST STRESS PERIOD

      2 GHB CELLS

 REUSING STREAM SEGMENT DATA FROM LAST STRESS PERIOD



            AREAL INFILTRATION RATE
 READING ON UNIT   19 WITH FORMAT: (FREE)              

            1           2           3           4           5           6           7           8           9          10
 ........................................................................................................................
   1   1.0000E-10  2.0000E-10   0.000       0.000       0.000       0.000       0.000       0.000       0.000       0.000    
   2   2.0000E-10  1.0000E-10  2.0000E-10   0.000       0.000      8.0000E-10  8.0000E-10  5.0000E-10   0.000       0.000    
   3    0.000      5.0000E-10  1.0000E-10  1.0000E-10  8.0000E-10  8.0000E-10  5.0000E-10  5.0000E-10   0.000       0.000    
   4   8.0000E-10  5.0000E-10  1.0000E-10  1.0000E-10  1.0000E-10  1.0000E-10  1.0000E-10  1.0000E-10  2.0000E-10   0.000    
   5   8.0000E-10  5.0000E-10  1.0000E-10  1.0000E-10  1.0000E-10  1.0000E-10  1.0000E-10  1.0000E-10  1.0000E-10  1.0000E-10
   6   8.0000E-10  5.0000E-10  5.0000E-10  2.0000E-10  2.0000E-10  1.0000E-10  1.0000E-10  1.0000E-10  1.0000E-10  5.0000E-10
   7   8.0000E-10  5.0000E-10  5.0000E-10  2.0000E-10  2.0000E-10  1.0000E-10  1.0000E-10  2.0000E-10  2.0000E-10   0.000    
   8    0.000      5.0000E-10  5.0000E-10  2.0000E-10  2.0000E-10  1.0000E-10  1.0000E-10  2.0000E-10  5.0000E-10   0.000    
   9    0.000      5.0000E-10  5.0000E-10  2.0000E-10  2.0000E-10  1.0000E-10  1.0000E-10  2.0000E-10  5.0000E-10   0.000    
  10    0.000      5.0000E-10  5.0000E-10  2.0000E-10  2.0000E-10  1.0000E-10  1.0000E-10  2.0000E-10  5.0000E-10  8.0000E-10
  11    0.000      1.0000E-10  1.0000E-10  1.0000E-10  1.0000E-10  1.0000E-10  1.0000E-10  2.0000E-10  5.0000E-10   0.000    
  12   1.0000E-10  1.0000E-10  1.0000E-10  1.0000E-10  1.0000E-10  1.0000E-10  1.0000E-10  1.0000E-10  2.0000E-10   0.000    
  13   1.0000E-10  1.0000E-10  2.0000E-10  2.0000E-10  2.0000E-10  2.0000E-10  2.0000E-10  1.0000E-10  1.0000E-10   0.000    
  14    0.000      2.0000E-10  5.0000E-10  5.0000E-10  5.0000E-10  5.0000E-10  5.0000E-10  2.0000E-10  1.0000E-10   0.000    
  15    0.000       0.000      8.0000E-10  8.0000E-10  8.0000E-10  8.0000E-10   0.000       0.000       0.000       0.000    

                  ET RATE =  7.500000E-08

 USING ET EXTINCTION DEPTH FROM PREVIOUS STRESS PERIOD. CURRENT PERIOD IS:      34

 USING EXTINCTION WATER CONTENT FROM PREVIOUS STRESS PERIOD. CURRENT PERIOD IS:      34

 USING AIR ENTRY PRESSURE FROM PREVIOUS STRESS PERIOD. CURRENT PERIOD IS:      34

 USING ROOT PRESSURE HEAD FROM PREVIOUS STRESS PERIOD. CURRENT PERIOD IS:      34

 USING ROOT ACTIVITY FROM PREVIOUS STRESS PERIOD. CURRENT PERIOD IS:      34

 PROCESSING AG STRESS PERIOD DATA

 READING AG STRESS PERIOD DATA

 READING IRRIGATION SEGMENT

 READING IRRIGATION WELL

 READING SUPPLEMENTAL WELL

 NO IRRPOND OR REUSING IRRPOND DATA FROM LAST STRESS PERIOD

 END PROCESSING AG STRESS PERIOD DATA OPTIONS
 
 SOLVING FOR HEAD 
                                                   Max.-Head-Change                         Max.-Flux-Residual
  Residual-Control   Outer-Iter.   Inner-Iter.     Column Row Layer    Maximum-Head-Change  Column Row Layer    Maximum-Flux-Residual          L2-NORM 
          0                 1           2             5    8     1       0.7046273106E-01       5    8    1         0.3835100010E+01      0.1002074205E+02
          0                 2           2             5    8     1      -0.6853997121E-02       5    8    1        -0.3835026590E+00      0.1002051227E+01
          0                 3           2             5    8     1       0.4667328657E-03       5    8    1         0.2684526946E-01      0.7014376297E-01
          0                 4           1             5    8     1      -0.1857173310E-04       5    8    1        -0.1097972719E-02      0.2868878979E-02

    ------------------------------------------------
       NWT REQUIRED            4 OUTER ITERATIONS 
       AND A TOTAL OF          7 INNER ITERATIONS.
    ------------------------------------------------

 NO OUTPUT CONTROL FOR STRESS PERIOD   34   TIME STEP    1
 
 SOLVING FOR HEAD 
                                                   Max.-Head-Change                         Max.-Flux-Residual
  Residual-Control   Outer-Iter.   Inner-Iter.     Column Row Layer    Maximum-Head-Change  Column Row Layer    Maximum-Flux-Residual          L2-NORM 
          0                 1           2             5    8     1       0.6732917912E-01       5    8    1         0.3661599831E+01      0.9704826465E+01
          0                 2           2             5    8     1      -0.6549195104E-02       5    8    1        -0.3661531360E+00      0.9704562655E+00
          0                 3           2             5    8     1       0.4459769080E-03       5    8    1         0.2563079763E-01      0.6793156657E-01
          0                 4           1             5    8     1      -0.1774583406E-04       5    8    1        -0.1048300765E-02      0.2778367808E-02

    ------------------------------------------------
       NWT REQUIRED            4 OUTER ITERATIONS 
       AND A TOTAL OF          7 INNER ITERATIONS.
    ------------------------------------------------

 NO OUTPUT CONTROL FOR STRESS PERIOD   34   TIME STEP    2
 
 SOLVING FOR HEAD 
                                                   Max.-Head-Change                         Max.-Flux-Residual
  Residual-Control   Outer-Iter.   Inner-Iter.     Column Row Layer    Maximum-Head-Change  Column Row Layer    Maximum-Flux-Residual          L2-NORM 
          0                 1           2             5    8     1       0.6438377308E-01       5    8    1         0.3498763192E+01      0.9422101882E+01
          0                 2           2             5    8     1      -0.6262693495E-02       5    8    1        -0.3498698936E+00      0.9421361722E+00
          0                 3           2             5    8     1       0.4264671516E-03       5    8    1         0.2449096618E-01      0.6594452929E-01
          0                 4           1             5    8     1      -0.1696952335E-04       5    8    1        -0.1001681629E-02      0.2696731513E-02

    ------------------------------------------------
       NWT REQUIRED            4 OUTER ITERATIONS 
       AND A TOTAL OF          7 INNER ITERATIONS.
    ------------------------------------------------

 NO OUTPUT CONTROL FOR STRESS PERIOD   34   TIME STEP    3
 
 SOLVING FOR HEAD 
                                                   Max.-Head-Change                         Max.-Flux-Residual
  Residual-Control   Outer-Iter.   Inner-Iter.     Column Row Layer    Maximum-Head-Change  Column Row Layer    Maximum-Flux-Residual          L2-NORM 
          0                 1           2             5    8     1       0.6161619675E-01       5    8    1         0.3345704994E+01      0.9134008115E+01
          0                 2           2             5    8     1      -0.5993490155E-02       5    8    1        -0.3345645151E+00      0.9133350297E+00
          0                 3           2             5    8     1       0.4081353395E-03       5    8    1         0.2341958505E-01      0.6392917080E-01
          0                 4           1             5    8     1      -0.1624008340E-04       5    8    1        -0.9578620889E-03      0.2614449601E-02

    ------------------------------------------------
       NWT REQUIRED            4 OUTER ITERATIONS 
       AND A TOTAL OF          7 INNER ITERATIONS.
    ------------------------------------------------

 NO OUTPUT CONTROL FOR STRESS PERIOD   34   TIME STEP    4
 
 SOLVING FOR HEAD 
                                                   Max.-Head-Change                         Max.-Flux-Residual
  Residual-Control   Outer-Iter.   Inner-Iter.     Column Row Layer    Maximum-Head-Change  Column Row Layer    Maximum-Flux-Residual          L2-NORM 
          0                 1           2             5    6     1       0.5902121572E-01       5    8    1         0.3201890293E+01      0.8861063828E+01
          0                 2           2             5    6     1      -0.5741070204E-02       5    8    1        -0.3201834535E+00      0.8860478803E+00
          0                 3           2             5    6     1       0.3909464677E-03       5    8    1         0.2241290644E-01      0.6201954397E-01
          0                 4           1             5    6     1      -0.1555608787E-04       5    8    1        -0.9166888829E-03      0.2536387672E-02

    ------------------------------------------------
       NWT REQUIRED            4 OUTER ITERATIONS 
       AND A TOTAL OF          7 INNER ITERATIONS.
    ------------------------------------------------

 NO OUTPUT CONTROL FOR STRESS PERIOD   34   TIME STEP    5
 
 SOLVING FOR HEAD 
                                                   Max.-Head-Change                         Max.-Flux-Residual
  Residual-Control   Outer-Iter.   Inner-Iter.     Column Row Layer    Maximum-Head-Change  Column Row Layer    Maximum-Flux-Residual          L2-NORM 
          0                 1           2             5    7     1       0.5681280418E-01       5    6    1         0.3067369829E+01      0.8602181718E+01
          0                 2           2             5    7     1      -0.5526295233E-02       5    6    1        -0.3067314899E+00      0.8601679566E+00
          0                 3           2             5    7     1       0.3763206659E-03       5    6    1         0.2147126780E-01      0.6020841690E-01
          0                 4           1             5    7     1      -0.1497415089E-04       5    6    1        -0.8781758297E-03      0.2462392076E-02

    ------------------------------------------------
       NWT REQUIRED            4 OUTER ITERATIONS 
       AND A TOTAL OF          7 INNER ITERATIONS.
    ------------------------------------------------

 NO OUTPUT CONTROL FOR STRESS PERIOD   34   TIME STEP    6
 
 SOLVING FOR HEAD 
                                                   Max.-Head-Change                         Max.-Flux-Residual
  Residual-Control   Outer-Iter.   Inner-Iter.     Column Row Layer    Maximum-Head-Change  Column Row Layer    Maximum-Flux-Residual          L2-NORM 
          0                 1           2             5    7     1       0.5554905439E-01       5    7    1         0.2952575923E+01      0.8356382240E+01
          0                 2           2             5    7     1      -0.5403373249E-02       5    7    1        -0.2952552161E+00      0.8355918610E+00
          0                 3           2             5    7     1       0.3679500721E-03       5    7    1         0.2066789881E-01      0.5848842358E-01
          0                 4           1             5    7     1      -0.1464107765E-04       5    7    1        -0.8453181231E-03      0.2392019685E-02

    ------------------------------------------------
       NWT REQUIRED            4 OUTER ITERATIONS 
       AND A TOTAL OF          7 INNER ITERATIONS.
    ------------------------------------------------

 NO OUTPUT CONTROL FOR STRESS PERIOD   34   TIME STEP    7
 
 SOLVING FOR HEAD 
                                                   Max.-Head-Change                         Max.-Flux-Residual
  Residual-Control   Outer-Iter.   Inner-Iter.     Column Row Layer    Maximum-Head-Change  Column Row Layer    Maximum-Flux-Residual          L2-NORM 
          0                 1           2             5    7     1       0.5430958126E-01       5    7    1         0.2886889560E+01      0.8122745398E+01
          0                 2           2             5    7     1      -0.5282811921E-02       5    7    1        -0.2886869589E+00      0.8122331970E+00
          0                 3           2             5    7     1       0.3597402377E-03       5    7    1         0.2020811701E-01      0.5685362504E-01
          0                 4           1             5    7     1      -0.1431440113E-04       5    7    1        -0.8265130477E-03      0.2325106602E-02

    ------------------------------------------------
       NWT REQUIRED            4 OUTER ITERATIONS 
       AND A TOTAL OF          7 INNER ITERATIONS.
    ------------------------------------------------

 NO OUTPUT CONTROL FOR STRESS PERIOD   34   TIME STEP    8
 
 SOLVING FOR HEAD 
                                                   Max.-Head-Change                         Max.-Flux-Residual
  Residual-Control   Outer-Iter.   Inner-Iter.     Column Row Layer    Maximum-Head-Change  Column Row Layer    Maximum-Flux-Residual          L2-NORM 
          0                 1           2             5    7     1       0.5309534496E-01       5    7    1         0.2822478141E+01      0.7900453256E+01
          0                 2           2             5    7     1      -0.5164704748E-02       5    7    1        -0.2822461483E+00      0.7900085291E+00
          0                 3           2             5    7     1       0.3516975287E-03       5    7    1         0.1975725694E-01      0.5529821161E-01
          0                 4           1             5    7     1      -0.1399437415E-04       5    7    1        -0.8080728387E-03      0.2261589465E-02

    ------------------------------------------------
       NWT REQUIRED            4 OUTER ITERATIONS 
       AND A TOTAL OF          7 INNER ITERATIONS.
    ------------------------------------------------

 NO OUTPUT CONTROL FOR STRESS PERIOD   34   TIME STEP    9
 
 SOLVING FOR HEAD 
                                                   Max.-Head-Change                         Max.-Flux-Residual
  Residual-Control   Outer-Iter.   Inner-Iter.     Column Row Layer    Maximum-Head-Change  Column Row Layer    Maximum-Flux-Residual          L2-NORM 
          0                 1           2             4    7     1       0.5210158800E-01       5    7    1         0.2759375225E+01      0.7688723934E+01
          0                 2           2             4    7     1      -0.5068059003E-02       5    7    1        -0.2759361465E+00      0.7688298240E+00
          0                 3           2             4    7     1       0.3451161194E-03       5    7    1         0.1931555387E-01      0.5381598358E-01
          0                 4           1             4    7     1      -0.1373249282E-04       5    7    1        -0.7900071889E-03      0.2200908439E-02

    ------------------------------------------------
       NWT REQUIRED            4 OUTER ITERATIONS 
       AND A TOTAL OF          7 INNER ITERATIONS.
    ------------------------------------------------

 NO OUTPUT CONTROL FOR STRESS PERIOD   34   TIME STEP   10
 
 SOLVING FOR HEAD 
                                                   Max.-Head-Change                         Max.-Flux-Residual
  Residual-Control   Outer-Iter.   Inner-Iter.     Column Row Layer    Maximum-Head-Change  Column Row Layer    Maximum-Flux-Residual          L2-NORM 
          0                 1           2             4    7     1       0.5165967666E-01       4    7    1         0.2707032764E+01      0.7486871248E+01
          0                 2           2             4    7     1      -0.5025077263E-02       4    7    1        -0.2707032612E+00      0.7486578187E+00
          0                 3           2             4    7     1       0.3421891817E-03       4    7    1         0.1894923886E-01      0.5240420009E-01
          0                 4           1             4    7     1      -0.1361602697E-04       4    7    1        -0.7750249370E-03      0.2143211675E-02

    ------------------------------------------------
       NWT REQUIRED            4 OUTER ITERATIONS 
       AND A TOTAL OF          7 INNER ITERATIONS.
    ------------------------------------------------

 NO OUTPUT CONTROL FOR STRESS PERIOD   34   TIME STEP   11
 
 SOLVING FOR HEAD 
                                                   Max.-Head-Change                         Max.-Flux-Residual
  Residual-Control   Outer-Iter.   Inner-Iter.     Column Row Layer    Maximum-Head-Change  Column Row Layer    Maximum-Flux-Residual          L2-NORM 
          0                 1           2             4    7     1       0.5119249583E-01       4    7    1         0.2684077071E+01      0.7294245394E+01
          0                 2           2             4    7     1      -0.4979637026E-02       4    7    1        -0.2684079376E+00      0.7293984162E+00
          0                 3           2             4    7     1       0.3390948339E-03       4    7    1         0.1878856383E-01      0.5105630278E-01
          0                 4           1             4    7     1      -0.1349290077E-04       4    7    1        -0.7684533389E-03      0.2088108875E-02

    ------------------------------------------------
       NWT REQUIRED            4 OUTER ITERATIONS 
       AND A TOTAL OF          7 INNER ITERATIONS.
    ------------------------------------------------

 NO OUTPUT CONTROL FOR STRESS PERIOD   34   TIME STEP   12
 
 SOLVING FOR HEAD 
                                                   Max.-Head-Change                         Max.-Flux-Residual
  Residual-Control   Outer-Iter.   Inner-Iter.     Column Row Layer    Maximum-Head-Change  Column Row Layer    Maximum-Flux-Residual          L2-NORM 
          0                 1           2             4    7     1       0.5070234051E-01       4    7    1         0.2659796742E+01      0.7110245206E+01
          0                 2           2             4    7     1      -0.4931961574E-02       4    7    1        -0.2659801223E+00      0.7110010749E+00
          0                 3           2             4    7     1       0.3358482799E-03       4    7    1         0.1861861463E-01      0.4976857901E-01
          0                 4           1             4    7     1      -0.1336371701E-04       4    7    1        -0.7615023940E-03      0.2035444040E-02

    ------------------------------------------------
       NWT REQUIRED            4 OUTER ITERATIONS 
       AND A TOTAL OF          7 INNER ITERATIONS.
    ------------------------------------------------

 NO OUTPUT CONTROL FOR STRESS PERIOD   34   TIME STEP   13
 
 SOLVING FOR HEAD 
                                                   Max.-Head-Change                         Max.-Flux-Residual
  Residual-Control   Outer-Iter.   Inner-Iter.     Column Row Layer    Maximum-Head-Change  Column Row Layer    Maximum-Flux-Residual          L2-NORM 
          0                 1           2             4    7     1       0.5019175534E-01       4    7    1         0.2634332425E+01      0.6934314416E+01
          0                 2           2             4    7     1      -0.4882298470E-02       4    7    1        -0.2634338829E+00      0.6934104736E+00
          0                 3           2             4    7     1       0.3324663780E-03       4    7    1         0.1844037597E-01      0.4853741813E-01
          0                 4           1             4    7     1      -0.1322914804E-04       4    7    1        -0.7542124381E-03      0.1985100773E-02

    ------------------------------------------------
       NWT REQUIRED            4 OUTER ITERATIONS 
       AND A TOTAL OF          7 INNER ITERATIONS.
    ------------------------------------------------

 NO OUTPUT CONTROL FOR STRESS PERIOD   34   TIME STEP   14
 
 SOLVING FOR HEAD 
                                                   Max.-Head-Change                         Max.-Flux-Residual
  Residual-Control   Outer-Iter.   Inner-Iter.     Column Row Layer    Maximum-Head-Change  Column Row Layer    Maximum-Flux-Residual          L2-NORM 
          0                 1           2             4    7     1       0.4966299570E-01       4    7    1         0.2607808838E+01      0.6765947133E+01
          0                 2           2             4    7     1      -0.4830867138E-02       4    7    1        -0.2607816933E+00      0.6765759081E+00
          0                 3           2             4    7     1       0.3289640701E-03       4    7    1         0.1825472102E-01      0.4735911454E-01
          0                 4           1             4    7     1      -0.1308978827E-04       4    7    1        -0.7466191491E-03      0.1936903278E-02

    ------------------------------------------------
       NWT REQUIRED            4 OUTER ITERATIONS 
       AND A TOTAL OF          7 INNER ITERATIONS.
    ------------------------------------------------

 NO OUTPUT CONTROL FOR STRESS PERIOD   34   TIME STEP   15
 
 SOLVING FOR HEAD 
                                                   Max.-Head-Change                         Max.-Flux-Residual
  Residual-Control   Outer-Iter.   Inner-Iter.     Column Row Layer    Maximum-Head-Change  Column Row Layer    Maximum-Flux-Residual          L2-NORM 
          0                 1           2             4    7     1       0.4911790548E-01       4    7    1         0.2580328475E+01      0.6604677151E+01
          0                 2           2             4    7     1      -0.4777846969E-02       4    7    1        -0.2580338050E+00      0.6604509000E+00
          0                 3           2             4    7     1       0.3253535710E-03       4    7    1         0.1806236734E-01      0.4623050320E-01
          0                 4           1             4    7     1      -0.1294612330E-04       4    7    1        -0.7387518767E-03      0.1890737719E-02

    ------------------------------------------------
       NWT REQUIRED            4 OUTER ITERATIONS 
       AND A TOTAL OF          7 INNER ITERATIONS.
    ------------------------------------------------

 NO OUTPUT CONTROL FOR STRESS PERIOD   34   TIME STEP   16
 
 SOLVING FOR HEAD 
                                                   Max.-Head-Change                         Max.-Flux-Residual
  Residual-Control   Outer-Iter.   Inner-Iter.     Column Row Layer    Maximum-Head-Change  Column Row Layer    Maximum-Flux-Residual          L2-NORM 
          0                 1           2             4    7     1       0.4855873201E-01       4    7    1         0.2552015824E+01      0.6450080131E+01
          0                 2           2             4    7     1      -0.4723456598E-02       4    7    1        -0.2552026689E+00      0.6449928820E+00
          0                 3           2             4    7     1       0.3216497693E-03       4    7    1         0.1786418651E-01      0.4514852974E-01
          0                 4           1             4    7     1      -0.1279874569E-04       4    7    1        -0.7306462830E-03      0.1846527662E-02

    ------------------------------------------------
       NWT REQUIRED            4 OUTER ITERATIONS 
       AND A TOTAL OF          7 INNER ITERATIONS.
    ------------------------------------------------

 NO OUTPUT CONTROL FOR STRESS PERIOD   34   TIME STEP   17
 
 SOLVING FOR HEAD 
                                                   Max.-Head-Change                         Max.-Flux-Residual
  Residual-Control   Outer-Iter.   Inner-Iter.     Column Row Layer    Maximum-Head-Change  Column Row Layer    Maximum-Flux-Residual          L2-NORM 
          0                 1           2             4    7     1       0.4798704580E-01       4    7    1         0.2522958517E+01      0.6301743936E+01
          0                 2           2             4    7     1      -0.4667848820E-02       4    7    1        -0.2522970500E+00      0.6301607963E+00
          0                 3           2             4    7     1       0.3178630692E-03       4    7    1         0.1766079205E-01      0.4411040202E-01
          0                 4           1             4    7     1      -0.1264806945E-04       4    7    1        -0.7223274413E-03      0.1804040137E-02

    ------------------------------------------------
       NWT REQUIRED            4 OUTER ITERATIONS 
       AND A TOTAL OF          7 INNER ITERATIONS.
    ------------------------------------------------

 NO OUTPUT CONTROL FOR STRESS PERIOD   34   TIME STEP   18
 
 SOLVING FOR HEAD 
                                                   Max.-Head-Change                         Max.-Flux-Residual
  Residual-Control   Outer-Iter.   Inner-Iter.     Column Row Layer    Maximum-Head-Change  Column Row Layer    Maximum-Flux-Residual          L2-NORM 
          0                 1           2             4    7     1       0.4740470505E-01       4    7    1         0.2493259650E+01      0.6159304443E+01
          0                 2           2             4    7     1      -0.4611204412E-02       4    7    1        -0.2493272597E+00      0.6159182282E+00
          0                 3           2             4    7     1       0.3140057808E-03       4    7    1         0.1745290572E-01      0.4311350150E-01
          0                 4           1             4    7     1      -0.1249458433E-04       4    7    1        -0.7138248911E-03      0.1763272486E-02

    ------------------------------------------------
       NWT REQUIRED            4 OUTER ITERATIONS 
       AND A TOTAL OF          7 INNER ITERATIONS.
    ------------------------------------------------

 NO OUTPUT CONTROL FOR STRESS PERIOD   34   TIME STEP   19
 
 SOLVING FOR HEAD 
                                                   Max.-Head-Change                         Max.-Flux-Residual
  Residual-Control   Outer-Iter.   Inner-Iter.     Column Row Layer    Maximum-Head-Change  Column Row Layer    Maximum-Flux-Residual          L2-NORM 
          0                 1           2             4    7     1       0.4681317440E-01       4    7    1         0.2463001122E+01      0.6022413552E+01
          0                 2           2             4    7     1      -0.4553665865E-02       4    7    1        -0.2463014891E+00      0.6022303597E+00
          0                 3           2             4    7     1       0.3100876066E-03       4    7    1         0.1724110091E-01      0.4215551168E-01
          0                 4           1             4    7     1      -0.1233867658E-04       4    7    1        -0.7051620642E-03      0.1724192645E-02

    ------------------------------------------------
       NWT REQUIRED            4 OUTER ITERATIONS 
       AND A TOTAL OF          7 INNER ITERATIONS.
    ------------------------------------------------

 NO OUTPUT CONTROL FOR STRESS PERIOD   34   TIME STEP   20
 
 SOLVING FOR HEAD 
                                                   Max.-Head-Change                         Max.-Flux-Residual
  Residual-Control   Outer-Iter.   Inner-Iter.     Column Row Layer    Maximum-Head-Change  Column Row Layer    Maximum-Flux-Residual          L2-NORM 
          0                 1           2             4    7     1       0.4621395090E-01       4    7    1         0.2432266095E+01      0.5890761231E+01
          0                 2           2             4    7     1      -0.4495378824E-02       4    7    1        -0.2432280559E+00      0.5890661795E+00
          0                 3           2             4    7     1       0.3061184646E-03       4    7    1         0.1702595983E-01      0.4123397173E-01
          0                 4           1             4    7     1      -0.1218074085E-04       4    7    1        -0.6963627791E-03      0.1686410078E-02

    ------------------------------------------------
       NWT REQUIRED            4 OUTER ITERATIONS 
       AND A TOTAL OF          7 INNER ITERATIONS.
    ------------------------------------------------

 NO OUTPUT CONTROL FOR STRESS PERIOD   34   TIME STEP   21
 
 SOLVING FOR HEAD 
                                                   Max.-Head-Change                         Max.-Flux-Residual
  Residual-Control   Outer-Iter.   Inner-Iter.     Column Row Layer    Maximum-Head-Change  Column Row Layer    Maximum-Flux-Residual          L2-NORM 
          0                 1           2             4    7     1       0.4560855115E-01       4    7    1         0.2401139416E+01      0.5764050696E+01
          0                 2           2             4    7     1      -0.4436490831E-02       4    7    1        -0.2401154461E+00      0.5763961070E+00
          0                 3           2             4    7     1       0.3021084021E-03       4    7    1         0.1680807651E-01      0.4034715141E-01
          0                 4           1             4    7     1      -0.1202117653E-04       4    7    1        -0.6874513410E-03      0.1650184350E-02

    ------------------------------------------------
       NWT REQUIRED            4 OUTER ITERATIONS 
       AND A TOTAL OF          7 INNER ITERATIONS.
    ------------------------------------------------

 NO OUTPUT CONTROL FOR STRESS PERIOD   34   TIME STEP   22
 
 SOLVING FOR HEAD 
                                                   Max.-Head-Change                         Max.-Flux-Residual
  Residual-Control   Outer-Iter.   Inner-Iter.     Column Row Layer    Maximum-Head-Change  Column Row Layer    Maximum-Flux-Residual          L2-NORM 
          0                 1           2             4    7     1       0.4499798652E-01       4    7    1         0.2369678038E+01      0.5641996485E+01
          0                 2           2             4    7     1      -0.4377100281E-02       4    7    1        -0.2369693562E+00      0.5641915352E+00
          0                 3           2             4    7     1       0.2980641187E-03       4    7    1         0.1658784968E-01      0.3949287842E-01
          0                 4           1             4    7     1      -0.1186025094E-04       4    7    1        -0.6784440536E-03      0.1615221782E-02

    ------------------------------------------------
       NWT REQUIRED            4 OUTER ITERATIONS 
       AND A TOTAL OF          7 INNER ITERATIONS.
    ------------------------------------------------

 NO OUTPUT CONTROL FOR STRESS PERIOD   34   TIME STEP   23
 
 SOLVING FOR HEAD 
                                                   Max.-Head-Change                         Max.-Flux-Residual
  Residual-Control   Outer-Iter.   Inner-Iter.     Column Row Layer    Maximum-Head-Change  Column Row Layer    Maximum-Flux-Residual          L2-NORM 
          0                 1           2             4    7     1       0.4438358750E-01       4    7    1         0.2337956081E+01      0.5524359008E+01
          0                 2           2             4    7     1      -0.4317336612E-02       4    7    1        -0.2337971991E+00      0.5524285564E+00
          0                 3           2             4    7     1       0.2939944283E-03       4    7    1         0.1636579821E-01      0.3866951612E-01
          0                 4           1             4    7     1      -0.1169831407E-04       4    7    1        -0.6693621410E-03      0.1581551854E-02

    ------------------------------------------------
       NWT REQUIRED            4 OUTER ITERATIONS 
       AND A TOTAL OF          7 INNER ITERATIONS.
    ------------------------------------------------

 NO OUTPUT CONTROL FOR STRESS PERIOD   34   TIME STEP   24
 
 SOLVING FOR HEAD 
                                                   Max.-Head-Change                         Max.-Flux-Residual
  Residual-Control   Outer-Iter.   Inner-Iter.     Column Row Layer    Maximum-Head-Change  Column Row Layer    Maximum-Flux-Residual          L2-NORM 
          0                 1           2             4    7     1       0.4376645622E-01       4    7    1         0.2306035301E+01      0.5410897617E+01
          0                 2           2             4    7     1      -0.4257307044E-02       4    7    1        -0.2306051516E+00      0.5410831335E+00
          0                 3           2             4    7     1       0.2899066327E-03       4    7    1         0.1614235449E-01      0.3787540526E-01
          0                 4           1             4    7     1      -0.1153565696E-04       4    7    1        -0.6602232852E-03      0.1549094357E-02

    ------------------------------------------------
       NWT REQUIRED            4 OUTER ITERATIONS 
       AND A TOTAL OF          7 INNER ITERATIONS.
    ------------------------------------------------

 NO OUTPUT CONTROL FOR STRESS PERIOD   34   TIME STEP   25
 
 SOLVING FOR HEAD 
                                                   Max.-Head-Change                         Max.-Flux-Residual
  Residual-Control   Outer-Iter.   Inner-Iter.     Column Row Layer    Maximum-Head-Change  Column Row Layer    Maximum-Flux-Residual          L2-NORM 
          0                 1           2             4    7     1       0.4314760930E-01       4    7    1         0.2273972842E+01      0.5301398573E+01
          0                 2           2             4    7     1      -0.4197110481E-02       4    7    1        -0.2273989288E+00      0.5301338233E+00
          0                 3           2             4    7     1       0.2858074661E-03       4    7    1         0.1591791857E-01      0.3710896305E-01
          0                 4           1             4    7     1      -0.1137254728E-04       4    7    1        -0.6510438393E-03      0.1517721872E-02

    ------------------------------------------------
       NWT REQUIRED            4 OUTER ITERATIONS 
       AND A TOTAL OF          7 INNER ITERATIONS.
    ------------------------------------------------

 NO OUTPUT CONTROL FOR STRESS PERIOD   34   TIME STEP   26
 
 SOLVING FOR HEAD 
                                                   Max.-Head-Change                         Max.-Flux-Residual
  Residual-Control   Outer-Iter.   Inner-Iter.     Column Row Layer    Maximum-Head-Change  Column Row Layer    Maximum-Flux-Residual          L2-NORM 
          0                 1           2             4    7     1       0.4252798470E-01       4    7    1         0.2241821417E+01      0.5195651914E+01
          0                 2           2             4    7     1      -0.4136838171E-02       4    7    1        -0.2241838026E+00      0.5195597049E+00
          0                 3           2             4    7     1       0.2817031427E-03       4    7    1         0.1569285951E-01      0.3636882002E-01
          0                 4           1             4    7     1      -0.1120923234E-04       4    7    1        -0.6418388998E-03      0.1487480648E-02

    ------------------------------------------------
       NWT REQUIRED            4 OUTER ITERATIONS 
       AND A TOTAL OF          7 INNER ITERATIONS.
    ------------------------------------------------

 NO OUTPUT CONTROL FOR STRESS PERIOD   34   TIME STEP   27
 
 SOLVING FOR HEAD 
                                                   Max.-Head-Change                         Max.-Flux-Residual
  Residual-Control   Outer-Iter.   Inner-Iter.     Column Row Layer    Maximum-Head-Change  Column Row Layer    Maximum-Flux-Residual          L2-NORM 
          0                 1           2             4    7     1       0.4190831020E-01       4    7    1         0.2209622424E+01      0.5093463805E+01
          0                 2           2             4    7     1      -0.4076560919E-02       4    7    1        -0.2209639139E+00      0.5093413688E+00
          0                 3           2             4    7     1       0.2775984838E-03       4    7    1         0.1546746710E-01      0.3565354837E-01
          0                 4           1             4    7     1      -0.1104590449E-04       4    7    1        -0.6326203586E-03      0.1458215162E-02

    ------------------------------------------------
       NWT REQUIRED            4 OUTER ITERATIONS 
       AND A TOTAL OF          7 INNER ITERATIONS.
    ------------------------------------------------

 NO OUTPUT CONTROL FOR STRESS PERIOD   34   TIME STEP   28
 
 SOLVING FOR HEAD 
                                                   Max.-Head-Change                         Max.-Flux-Residual
  Residual-Control   Outer-Iter.   Inner-Iter.     Column Row Layer    Maximum-Head-Change  Column Row Layer    Maximum-Flux-Residual          L2-NORM 
          0                 1           2             4    7     1       0.4128965004E-01       4    7    1         0.2177435292E+01      0.4994657398E+01
          0                 2           2             4    7     1      -0.4016382256E-02       4    7    1        -0.2177452061E+00      0.4994611658E+00
          0                 3           2             4    7     1       0.2735005388E-03       4    7    1         0.1524215739E-01      0.3496197216E-01
          0                 4           1             4    7     1      -0.1088284306E-04       4    7    1        -0.6234051771E-03      0.1429927594E-02

    ------------------------------------------------
       NWT REQUIRED            4 OUTER ITERATIONS 
       AND A TOTAL OF          7 INNER ITERATIONS.
    ------------------------------------------------

 NO OUTPUT CONTROL FOR STRESS PERIOD   34   TIME STEP   29
 
 SOLVING FOR HEAD 
                                                   Max.-Head-Change                         Max.-Flux-Residual
  Residual-Control   Outer-Iter.   Inner-Iter.     Column Row Layer    Maximum-Head-Change  Column Row Layer    Maximum-Flux-Residual          L2-NORM 
          0                 1           2             4    7     1       0.4067232646E-01       4    7    1         0.2145279044E+01      0.4899063026E+01
          0                 2           2             4    7     1      -0.3956333535E-02       4    7    1        -0.2145295820E+00      0.4899021371E+00
          0                 3           2             4    7     1       0.2694114434E-03       4    7    1         0.1501706361E-01      0.3429285287E-01
          0                 4           1             4    7     1      -0.1072013425E-04       4    7    1        -0.6141988279E-03      0.1402560130E-02

    ------------------------------------------------
       NWT REQUIRED            4 OUTER ITERATIONS 
       AND A TOTAL OF          7 INNER ITERATIONS.
    ------------------------------------------------

 NO OUTPUT CONTROL FOR STRESS PERIOD   34   TIME STEP   30



 STREAM LISTING     PERIOD     34   STEP       30

 LAYER ROW COL. STREAM  RCH.  FLOW INTO     FLOW TO   FLOW OUT OF   OVRLND.     DIRECT     STREAM       STREAM     STREAM     STREAM   STREAMBED  STREAMBED
                SEG.NO.  NO.  STRM. RCH.    AQUIFER    STRM. RCH.    RUNOFF     PRECIP       ET          HEAD       DEPTH      WIDTH   CONDCTNC.   GRADIENT

   1    1    1     1     1    3.5249E+01  2.8720E-01   3.4962E+01  0.000E+00  0.000E+00  0.000E+00  1.09434E+03  1.294E+00  1.486E+01  6.688E-02  1.431E+00
   1    2    2     1     2    3.4962E+01  4.4466E-01   3.4517E+01  0.000E+00  0.000E+00  0.000E+00  1.08935E+03  1.291E+00  1.480E+01  1.036E-01  1.430E+00
   1    3    3     1     3    3.4517E+01  3.7911E-01   3.4138E+01  0.000E+00  0.000E+00  0.000E+00  1.08371E+03  1.288E+00  1.474E+01  8.841E-02  1.429E+00
   1    3    4     1     4    3.4138E+01  3.4901E-01   3.3789E+01  0.000E+00  0.000E+00  0.000E+00  1.07869E+03  1.285E+00  1.468E+01  8.145E-02  1.428E+00
   1    4    5     2     1    3.1789E+01  3.4244E-01   3.1446E+01  0.000E+00  0.000E+00  0.000E+00  1.07332E+03  1.390E+00  1.200E+01  7.800E-02  1.463E+00
   1    5    6     2     2    3.1446E+01  2.6294E-01   3.1184E+01  0.000E+00  0.000E+00  0.000E+00  1.06789E+03  1.382E+00  1.200E+01  6.000E-02  1.461E+00
   1    6    6     2     3    3.1184E+01  2.6252E-01   3.0921E+01  0.000E+00  0.000E+00  0.000E+00  1.06317E+03  1.375E+00  1.200E+01  6.000E-02  1.458E+00
   1    7    6     2     4    3.0921E+01  2.6210E-01   3.0659E+01  0.000E+00  0.000E+00  0.000E+00  1.05844E+03  1.368E+00  1.200E+01  6.000E-02  1.456E+00
   1    8    6     2     5    3.0659E+01  2.6168E-01   3.0397E+01  0.000E+00  0.000E+00  0.000E+00  1.05372E+03  1.361E+00  1.200E+01  6.000E-02  1.454E+00
   1    3    5     3     1    2.0000E+00  2.8252E-01   1.7175E+00  0.000E+00  0.000E+00  0.000E+00  1.07555E+03  1.909E+00  9.636E+00  7.227E-02  1.955E+00
   1    3    6     3     2    1.7175E+00  2.4905E-01   1.4684E+00  0.000E+00  0.000E+00  0.000E+00  1.07264E+03  1.727E+00  8.909E+00  6.682E-02  1.864E+00
   1    3    7     3     3    1.4684E+00  1.9718E-01   1.2712E+00  0.000E+00  0.000E+00  0.000E+00  1.06987E+03  1.555E+00  8.218E+00  5.547E-02  1.777E+00
   1    4    8     3     4    1.2712E+00  2.2567E-01   1.0456E+00  0.000E+00  0.000E+00  0.000E+00  1.06682E+03  1.364E+00  7.455E+00  6.709E-02  1.682E+00
   1    5    8     3     5    1.0456E+00  1.5790E-01   8.8768E-01  0.000E+00  0.000E+00  0.000E+00  1.06362E+03  1.164E+00  6.655E+00  4.991E-02  1.582E+00
   1    6    8     3     6    8.8768E-01  5.5980E-02   8.3170E-01  0.000E+00  0.000E+00  0.000E+00  1.06158E+03  1.036E+00  6.145E+00  1.844E-02  1.518E+00
   1    5   10     4     1    1.0000E+01  9.0919E-02   9.9091E+00  0.000E+00  0.000E+00  0.000E+00  1.07836E+03  6.368E-01  1.000E+01  2.500E-02  1.212E+00
   1    5    9     4     2    9.9091E+00  1.8158E-01   9.7275E+00  0.000E+00  0.000E+00  0.000E+00  1.07154E+03  6.315E-01  1.000E+01  5.000E-02  1.211E+00
   1    6    8     4     3    9.7275E+00  1.2689E-01   9.6006E+00  0.000E+00  0.000E+00  0.000E+00  1.06381E+03  6.256E-01  1.000E+01  3.500E-02  1.209E+00
   1    6    8     5     1    1.0432E+01  2.2686E-01   1.0205E+01  0.000E+00  0.000E+00  0.000E+00  1.05868E+03  6.790E-01  1.542E+01  6.166E-02  1.226E+00
   1    7    7     5     2    1.0205E+01  2.7894E-01   9.9265E+00  0.000E+00  0.000E+00  0.000E+00  1.05417E+03  6.732E-01  1.519E+01  7.594E-02  1.224E+00
   1    8    7     5     3    9.9265E+00  1.9221E-01   9.7343E+00  0.000E+00  0.000E+00  0.000E+00  1.04992E+03  6.676E-01  1.497E+01  5.241E-02  1.223E+00
   1    8    6     5     4    9.7343E+00  1.3577E-01   9.5985E+00  0.000E+00  0.000E+00  0.000E+00  1.04691E+03  6.637E-01  1.482E+01  3.706E-02  1.221E+00
   1    9    6     6     1    3.9996E+01  2.7692E-01   3.9719E+01  0.000E+00  0.000E+00  0.000E+00  1.04434E+03  1.615E+00  1.200E+01  6.000E-02  1.538E+00
   1   10    7     6     2    3.9719E+01  2.7652E-01   3.9442E+01  0.000E+00  0.000E+00  0.000E+00  1.03979E+03  1.609E+00  1.200E+01  6.000E-02  1.536E+00
   1   11    7     6     3    3.9442E+01  2.7611E-01   3.9166E+01  0.000E+00  0.000E+00  0.000E+00  1.03524E+03  1.602E+00  1.200E+01  6.000E-02  1.534E+00
   1   12    7     6     4    3.9166E+01  2.7571E-01   3.8891E+01  0.000E+00  0.000E+00  0.000E+00  1.03069E+03  1.595E+00  1.200E+01  6.000E-02  1.532E+00
   1   13    7     6     5    3.8891E+01  1.6691E-02   3.8874E+01  0.000E+00  0.000E+00  0.000E+00  1.02750E+03  1.592E+00  1.200E+01  2.400E-02  2.318E-01
   1   14    9     7     1    1.5000E+02  1.3579E+00   1.4864E+02  0.000E+00  0.000E+00  0.000E+00  1.03987E+03  2.288E+00  5.529E+01  5.593E-01  8.093E-01
   1   13    8     7     2    1.4864E+02  1.9194E+00   1.4672E+02  0.000E+00  0.000E+00  0.000E+00  1.03478E+03  2.279E+00  5.526E+01  6.148E-01  1.041E+00
   1   13    7     7     3    1.4672E+02  1.6103E+00   1.4511E+02  0.000E+00  0.000E+00  0.000E+00  1.02969E+03  2.270E+00  5.521E+01  5.584E-01  9.612E-01
   1   13    6     8     1    1.8399E+02  1.1126E+00   1.8287E+02  0.000E+00  0.000E+00  0.000E+00  1.02491E+03  3.038E+00  4.405E+01  4.488E-01  8.263E-01
   1   13    5     8     2    1.8287E+02  3.3023E-01   1.8254E+02  0.000E+00  0.000E+00  0.000E+00  1.01866E+03  3.033E+00  4.398E+01  4.482E-01  2.456E-01
   1   13    4     8     3    1.8254E+02 -1.9620E+00   1.8451E+02  0.000E+00  0.000E+00  0.000E+00  1.01241E+03  3.038E+00  4.405E+01  4.489E+00 -1.457E-01
   1   13    3     8     4    1.8451E+02 -3.4382E+00   1.8794E+02  0.000E+00  0.000E+00  0.000E+00  1.00618E+03  3.055E+00  4.430E+01  4.514E+00 -2.539E-01
   1   13    2     8     5    1.8794E+02 -2.5398E+00   1.9048E+02  0.000E+00  0.000E+00  0.000E+00  9.99948E+02  3.073E+00  4.456E+01  4.541E+00 -1.864E-01
   1   13    1     8     6    1.9048E+02 -2.0022E+00   1.9249E+02  0.000E+00  0.000E+00  0.000E+00  9.94962E+02  3.087E+00  4.476E+01  2.737E+00 -2.439E-01
   1    8    6     9     1    0.0000E+00  0.0000E+00   0.0000E+00  0.000E+00  0.000E+00  0.000E+00  1.07875E+03  0.000E+00  4.000E+00  0.000E+00  1.000E+00
   1    8    5     9     2    0.0000E+00  0.0000E+00   0.0000E+00  0.000E+00  0.000E+00  0.000E+00  1.07825E+03  0.000E+00  4.000E+00  0.000E+00  1.000E+00





UNSATURATED ZONE PACKAGE VOLUMETRIC BUDGET FOR  TIME STEP    30 STRESS PERIOD   34
  ------------------------------------------------------------------------------



     CUMULATIVE VOLUMES      L**3       RATES FOR THIS TIME STEP      L**3/T
     ------------------                 ------------------------

           IN:                                      IN:
           ---                                      ---
        INFILTRATION =  1275511945.8862          INFILTRATION =          12.0675

          OUT:                                     OUT:
          ----                                     ----
              UZF ET =  1274705027.0662                UZF ET =          12.0675
        UZF RECHARGE =       73224.0000          UZF RECHARGE =       0.0000E+00

            IN - OUT =      733694.8200              IN - OUT =       0.0000E+00

          STORAGE:                                 STORAGE:
          --------                                 --------
      STORAGE CHANGE =      733694.8611        STORAGE CHANGE =      -4.1498E-16

 PERCENT DISCREPANCY IS DIFFERENCE BETWEEN IN-OUT MINUS CHANGE IN STORAGE
 DIVIDED BY THE AVERAGE OF IN AND OUT TIMES 100

 PERCENT DISCREPANCY =           0.00     PERCENT DISCREPANCY =           0.00






1
  VOLUMETRIC BUDGET FOR AGRICULTURAL FIELDS AT  END OF TIME STEP   30, STRESS PERIOD  34
  ------------------------------------------------------------------------------

     CUMULATIVE VOLUMES      L**3       RATES FOR THIS TIME STEP      L**3/T
     ------------------                 ------------------------

           IN:                                      IN:
           ---                                      ---
               AG WELLS  =  1201881984.0000                 AG WELLS  =          11.2200
      DIVERSION SEGMENTS =           0.0000        DIVERSION SEGMENTS =           0.0000
       IRRIGATION PONDS  =           0.0000         IRRIGATION PONDS  =           0.0000
           GW IRRIGATION =           0.0000             GW IRRIGATION =           0.0000
           SW IRRIGATION =           0.0000             SW IRRIGATION =           0.0000
        SYSTEM LOSSES GW =           0.0000          SYSTEM LOSSES GW =           0.0000
        SYSTEM LOSSES SW =           0.0000          SYSTEM LOSSES SW =           0.0000

                TOTAL IN =  1201881984.0000                  TOTAL IN =          11.2200

          OUT:                                     OUT:
          ----                                     ----
               AG WELLS  =           0.0000                 AG WELLS  =           0.0000
      DIVERSION SEGMENTS =           0.0000        DIVERSION SEGMENTS =           0.0000
       IRRIGATION PONDS  =           0.0000         IRRIGATION PONDS  =           0.0000
           GW IRRIGATION =  1201881984.0000             GW IRRIGATION =          11.2200
           SW IRRIGATION =           0.0000             SW IRRIGATION =           0.0000
        SYSTEM LOSSES GW =           0.0000          SYSTEM LOSSES GW =           0.0000
        SYSTEM LOSSES SW =           0.0000          SYSTEM LOSSES SW =           0.0000

               TOTAL OUT =  1201881984.0000                 TOTAL OUT =          11.2200

                IN - OUT =           0.0000                  IN - OUT =           0.0000

     PERCENT DISCREPANCY =           0.00         PERCENT DISCREPANCY =           0.00



1
  VOLUMETRIC BUDGET FOR ENTIRE MODEL AT END OF TIME STEP   30, STRESS PERIOD  34
  ------------------------------------------------------------------------------

     CUMULATIVE VOLUMES      L**3       RATES FOR THIS TIME STEP      L**3/T
     ------------------                 ------------------------

           IN:                                      IN:
           ---                                      ---
             STORAGE     =  1550950784.0000               STORAGE     =          18.3804
       CONSTANT HEAD     =           0.0000         CONSTANT HEAD     =           0.0000
     HEAD DEP BOUNDS     =    24851904.0000       HEAD DEP BOUNDS     =           0.2873
      STREAM LEAKAGE     =  1069579904.0000        STREAM LEAKAGE     =          12.7055
        UZF RECHARGE     =       73223.9531          UZF RECHARGE     =           0.0000
               GW ET     =           0.0000                 GW ET     =           0.0000
     SURFACE LEAKAGE     =           0.0000       SURFACE LEAKAGE     =           0.0000
           AG WELLS      =           0.0000             AG WELLS      =           0.0000

                TOTAL IN =  2645455872.0000                  TOTAL IN =          31.3732

          OUT:                                     OUT:
          ----                                     ----
             STORAGE     =   516841120.0000               STORAGE     =           9.9187
       CONSTANT HEAD     =           0.0000         CONSTANT HEAD     =           0.0000
     HEAD DEP BOUNDS     =    25402456.0000       HEAD DEP BOUNDS     =           0.2924
      STREAM LEAKAGE     =   892963072.0000        STREAM LEAKAGE     =           9.9422
        UZF RECHARGE     =           0.0000          UZF RECHARGE     =           0.0000
               GW ET     =     8372419.5000                 GW ET     =           0.0000
     SURFACE LEAKAGE     =           0.0000       SURFACE LEAKAGE     =           0.0000
           AG WELLS      =  1201881984.0000             AG WELLS      =          11.2200

               TOTAL OUT =  2645460992.0000                 TOTAL OUT =          31.3732

                IN - OUT =       -5120.0000                  IN - OUT =      -2.4796E-05

     PERCENT DISCREPANCY =          -0.00         PERCENT DISCREPANCY =          -0.00






         TIME SUMMARY AT END OF TIME STEP   30 IN STRESS PERIOD   34
                    SECONDS     MINUTES      HOURS       DAYS        YEARS
                    -----------------------------------------------------------
   TIME STEP LENGTH  87667.      1461.1      24.352      1.0147     2.77799E-03
 STRESS PERIOD TIME 2.63000E+06  43833.      730.56      30.440     8.33397E-02
         TOTAL TIME 8.68762E+07 1.44794E+06  24132.      1005.5      2.7529    
1
1
                            STRESS PERIOD NO.   35, LENGTH =   2630000.    
                            -----------------------------------------------

                              NUMBER OF TIME STEPS =    30

                               MULTIPLIER FOR DELT =     1.000

                            INITIAL TIME STEP SIZE =   87666.66    

 REUSING NON-PARAMETER GHB CELLS FROM LAST STRESS PERIOD

      2 GHB CELLS

 REUSING STREAM SEGMENT DATA FROM LAST STRESS PERIOD



            AREAL INFILTRATION RATE
 READING ON UNIT   19 WITH FORMAT: (FREE)              

            1           2           3           4           5           6           7           8           9          10
 ........................................................................................................................
   1   1.0000E-10  2.0000E-10   0.000       0.000       0.000       0.000       0.000       0.000       0.000       0.000    
   2   2.0000E-10  1.0000E-10  2.0000E-10   0.000       0.000      8.0000E-10  8.0000E-10  5.0000E-10   0.000       0.000    
   3    0.000      5.0000E-10  1.0000E-10  1.0000E-10  8.0000E-10  8.0000E-10  5.0000E-10  5.0000E-10   0.000       0.000    
   4   8.0000E-10  5.0000E-10  1.0000E-10  1.0000E-10  1.0000E-10  1.0000E-10  1.0000E-10  1.0000E-10  2.0000E-10   0.000    
   5   8.0000E-10  5.0000E-10  1.0000E-10  1.0000E-10  1.0000E-10  1.0000E-10  1.0000E-10  1.0000E-10  1.0000E-10  1.0000E-10
   6   8.0000E-10  5.0000E-10  5.0000E-10  2.0000E-10  2.0000E-10  1.0000E-10  1.0000E-10  1.0000E-10  1.0000E-10  5.0000E-10
   7   8.0000E-10  5.0000E-10  5.0000E-10  2.0000E-10  2.0000E-10  1.0000E-10  1.0000E-10  2.0000E-10  2.0000E-10   0.000    
   8    0.000      5.0000E-10  5.0000E-10  2.0000E-10  2.0000E-10  1.0000E-10  1.0000E-10  2.0000E-10  5.0000E-10   0.000    
   9    0.000      5.0000E-10  5.0000E-10  2.0000E-10  2.0000E-10  1.0000E-10  1.0000E-10  2.0000E-10  5.0000E-10   0.000    
  10    0.000      5.0000E-10  5.0000E-10  2.0000E-10  2.0000E-10  1.0000E-10  1.0000E-10  2.0000E-10  5.0000E-10  8.0000E-10
  11    0.000      1.0000E-10  1.0000E-10  1.0000E-10  1.0000E-10  1.0000E-10  1.0000E-10  2.0000E-10  5.0000E-10   0.000    
  12   1.0000E-10  1.0000E-10  1.0000E-10  1.0000E-10  1.0000E-10  1.0000E-10  1.0000E-10  1.0000E-10  2.0000E-10   0.000    
  13   1.0000E-10  1.0000E-10  2.0000E-10  2.0000E-10  2.0000E-10  2.0000E-10  2.0000E-10  1.0000E-10  1.0000E-10   0.000    
  14    0.000      2.0000E-10  5.0000E-10  5.0000E-10  5.0000E-10  5.0000E-10  5.0000E-10  2.0000E-10  1.0000E-10   0.000    
  15    0.000       0.000      8.0000E-10  8.0000E-10  8.0000E-10  8.0000E-10   0.000       0.000       0.000       0.000    

                  ET RATE =  5.000000E-09

 USING ET EXTINCTION DEPTH FROM PREVIOUS STRESS PERIOD. CURRENT PERIOD IS:      35

 USING EXTINCTION WATER CONTENT FROM PREVIOUS STRESS PERIOD. CURRENT PERIOD IS:      35

 USING AIR ENTRY PRESSURE FROM PREVIOUS STRESS PERIOD. CURRENT PERIOD IS:      35

 USING ROOT PRESSURE HEAD FROM PREVIOUS STRESS PERIOD. CURRENT PERIOD IS:      35

 USING ROOT ACTIVITY FROM PREVIOUS STRESS PERIOD. CURRENT PERIOD IS:      35

 PROCESSING AG STRESS PERIOD DATA

 READING AG STRESS PERIOD DATA

 READING IRRIGATION SEGMENT

 READING IRRIGATION WELL

 READING SUPPLEMENTAL WELL

 NO IRRPOND OR REUSING IRRPOND DATA FROM LAST STRESS PERIOD

 END PROCESSING AG STRESS PERIOD DATA OPTIONS
 
 SOLVING FOR HEAD 
                                                   Max.-Head-Change                         Max.-Flux-Residual
  Residual-Control   Outer-Iter.   Inner-Iter.     Column Row Layer    Maximum-Head-Change  Column Row Layer    Maximum-Flux-Residual          L2-NORM 
          0                 1           2             4    7     1       0.7358270024E-01       4    7    1         0.3863213786E+01      0.8692619818E+01
          0                 2           2             4    7     1      -0.7157649209E-02       4    7    1        -0.3863254037E+00      0.8692601499E+00
          0                 3           2             4    7     1       0.4874087997E-03       4    7    1         0.2704275187E-01      0.6084807973E-01
          0                 4           1             4    7     1      -0.1939445473E-04       4    7    1        -0.1106050273E-02      0.2488685514E-02

    ------------------------------------------------
       NWT REQUIRED            4 OUTER ITERATIONS 
       AND A TOTAL OF          7 INNER ITERATIONS.
    ------------------------------------------------

 NO OUTPUT CONTROL FOR STRESS PERIOD   35   TIME STEP    1
 
 SOLVING FOR HEAD 
                                                   Max.-Head-Change                         Max.-Flux-Residual
  Residual-Control   Outer-Iter.   Inner-Iter.     Column Row Layer    Maximum-Head-Change  Column Row Layer    Maximum-Flux-Residual          L2-NORM 
          0                 1           2             4    7     1       0.7279992955E-01       4    7    1         0.3823136982E+01      0.8531094284E+01
          0                 2           2             4    7     1      -0.7081508846E-02       4    7    1        -0.3823178481E+00      0.8530858050E+00
          0                 3           2             4    7     1       0.4822239044E-03       4    7    1         0.2676222166E-01      0.5971389220E-01
          0                 4           1             4    7     1      -0.1918814273E-04       4    7    1        -0.1094576568E-02      0.2442163106E-02

    ------------------------------------------------
       NWT REQUIRED            4 OUTER ITERATIONS 
       AND A TOTAL OF          7 INNER ITERATIONS.
    ------------------------------------------------

 NO OUTPUT CONTROL FOR STRESS PERIOD   35   TIME STEP    2
 
 SOLVING FOR HEAD 
                                                   Max.-Head-Change                         Max.-Flux-Residual
  Residual-Control   Outer-Iter.   Inner-Iter.     Column Row Layer    Maximum-Head-Change  Column Row Layer    Maximum-Flux-Residual          L2-NORM 
          0                 1           2             4    7     1       0.7200753041E-01       4    7    1         0.3782472446E+01      0.8375769782E+01
          0                 2           2             4    7     1      -0.7004431571E-02       4    7    1        -0.3782514976E+00      0.8375271839E+00
          0                 3           2             4    7     1       0.4769752125E-03       4    7    1         0.2647757602E-01      0.5862236427E-01
          0                 4           1             4    7     1      -0.1897929240E-04       4    7    1        -0.1082934542E-02      0.2397417075E-02

    ------------------------------------------------
       NWT REQUIRED            4 OUTER ITERATIONS 
       AND A TOTAL OF          7 INNER ITERATIONS.
    ------------------------------------------------

 NO OUTPUT CONTROL FOR STRESS PERIOD   35   TIME STEP    3
 
 SOLVING FOR HEAD 
                                                   Max.-Head-Change                         Max.-Flux-Residual
  Residual-Control   Outer-Iter.   Inner-Iter.     Column Row Layer    Maximum-Head-Change  Column Row Layer    Maximum-Flux-Residual          L2-NORM 
          0                 1           2             4    7     1       0.7120686769E-01       4    7    1         0.3741294186E+01      0.8216191318E+01
          0                 2           2             4    7     1      -0.6926550179E-02       4    7    1        -0.3741337546E+00      0.8215755059E+00
          0                 3           2             4    7     1       0.4716717663E-03       4    7    1         0.2618933311E-01      0.5750625870E-01
          0                 4           1             4    7     1      -0.1876826363E-04       4    7    1        -0.1071145413E-02      0.2351779579E-02

    ------------------------------------------------
       NWT REQUIRED            4 OUTER ITERATIONS 
       AND A TOTAL OF          7 INNER ITERATIONS.
    ------------------------------------------------

 NO OUTPUT CONTROL FOR STRESS PERIOD   35   TIME STEP    4
 
 SOLVING FOR HEAD 
                                                   Max.-Head-Change                         Max.-Flux-Residual
  Residual-Control   Outer-Iter.   Inner-Iter.     Column Row Layer    Maximum-Head-Change  Column Row Layer    Maximum-Flux-Residual          L2-NORM 
          0                 1           2             4    7     1       0.7039974450E-01       4    7    1         0.3699701914E+01      0.8062484511E+01
          0                 2           2             4    7     1      -0.6848040088E-02       4    7    1        -0.3699745922E+00      0.8062101758E+00
          0                 3           2             4    7     1       0.4663255105E-03       4    7    1         0.2589819099E-01      0.5643082830E-01
          0                 4           1             4    7     1      -0.1855553142E-04       4    7    1        -0.1059237688E-02      0.2307623048E-02

    ------------------------------------------------
       NWT REQUIRED            4 OUTER ITERATIONS 
       AND A TOTAL OF          7 INNER ITERATIONS.
    ------------------------------------------------

 NO OUTPUT CONTROL FOR STRESS PERIOD   35   TIME STEP    5
 
 SOLVING FOR HEAD 
                                                   Max.-Head-Change                         Max.-Flux-Residual
  Residual-Control   Outer-Iter.   Inner-Iter.     Column Row Layer    Maximum-Head-Change  Column Row Layer    Maximum-Flux-Residual          L2-NORM 
          0                 1           2             4    7     1       0.6958731703E-01       4    7    1         0.3657760171E+01      0.7914296105E+01
          0                 2           2             4    7     1      -0.6769013787E-02       4    7    1        -0.3657804662E+00      0.7913961100E+00
          0                 3           2             4    7     1       0.4609441054E-03       4    7    1         0.2560460160E-01      0.5539458422E-01
          0                 4           1             4    7     1      -0.1834139996E-04       4    7    1        -0.1047229859E-02      0.2265428283E-02

    ------------------------------------------------
       NWT REQUIRED            4 OUTER ITERATIONS 
       AND A TOTAL OF          7 INNER ITERATIONS.
    ------------------------------------------------

 NO OUTPUT CONTROL FOR STRESS PERIOD   35   TIME STEP    6
 
 SOLVING FOR HEAD 
                                                   Max.-Head-Change                         Max.-Flux-Residual
  Residual-Control   Outer-Iter.   Inner-Iter.     Column Row Layer    Maximum-Head-Change  Column Row Layer    Maximum-Flux-Residual          L2-NORM 
          0                 1           2             4    7     1       0.6877118961E-01       4    7    1         0.3615557854E+01      0.7771308691E+01
          0                 2           2             4    7     1      -0.6689627358E-02       4    7    1        -0.3615602679E+00      0.7771015253E+00
          0                 3           2             4    7     1       0.4555381787E-03       4    7    1         0.2530918727E-01      0.5439432552E-01
          0                 4           1             4    7     1      -0.1812629325E-04       4    7    1        -0.1035147400E-02      0.2224578231E-02

    ------------------------------------------------
       NWT REQUIRED            4 OUTER ITERATIONS 
       AND A TOTAL OF          7 INNER ITERATIONS.
    ------------------------------------------------

 NO OUTPUT CONTROL FOR STRESS PERIOD   35   TIME STEP    7
 
 SOLVING FOR HEAD 
                                                   Max.-Head-Change                         Max.-Flux-Residual
  Residual-Control   Outer-Iter.   Inner-Iter.     Column Row Layer    Maximum-Head-Change  Column Row Layer    Maximum-Flux-Residual          L2-NORM 
          0                 1           2             4    7     1       0.6795232380E-01       4    7    1         0.3573149190E+01      0.7633201681E+01
          0                 2           2             4    7     1      -0.6609974360E-02       4    7    1        -0.3573194215E+00      0.7632944308E+00
          0                 3           2             4    7     1       0.4501141014E-03       4    7    1         0.2501232770E-01      0.5342817433E-01
          0                 4           1             4    7     1      -0.1791046376E-04       4    7    1        -0.1023005814E-02      0.2185060508E-02

    ------------------------------------------------
       NWT REQUIRED            4 OUTER ITERATIONS 
       AND A TOTAL OF          7 INNER ITERATIONS.
    ------------------------------------------------

 NO OUTPUT CONTROL FOR STRESS PERIOD   35   TIME STEP    8
 
 SOLVING FOR HEAD 
                                                   Max.-Head-Change                         Max.-Flux-Residual
  Residual-Control   Outer-Iter.   Inner-Iter.     Column Row Layer    Maximum-Head-Change  Column Row Layer    Maximum-Flux-Residual          L2-NORM 
          0                 1           2             4    7     1       0.6713201337E-01       4    7    1         0.3530605753E+01      0.7499728978E+01
          0                 2           2             4    7     1      -0.6530180659E-02       4    7    1        -0.3530650857E+00      0.7499503117E+00
          0                 3           2             4    7     1       0.4446804452E-03       4    7    1         0.2471452399E-01      0.5249431314E-01
          0                 4           1             4    7     1      -0.1769425413E-04       4    7    1        -0.1010825646E-02      0.2146875271E-02

    ------------------------------------------------
       NWT REQUIRED            4 OUTER ITERATIONS 
       AND A TOTAL OF          7 INNER ITERATIONS.
    ------------------------------------------------

 NO OUTPUT CONTROL FOR STRESS PERIOD   35   TIME STEP    9
 
 SOLVING FOR HEAD 
                                                   Max.-Head-Change                         Max.-Flux-Residual
  Residual-Control   Outer-Iter.   Inner-Iter.     Column Row Layer    Maximum-Head-Change  Column Row Layer    Maximum-Flux-Residual          L2-NORM 
          0                 1           2             4    7     1       0.6631132090E-01       4    7    1         0.3487987385E+01      0.7370623147E+01
          0                 2           2             4    7     1      -0.6450349634E-02       4    7    1        -0.3488032460E+00      0.7370424557E+00
          0                 3           2             4    7     1       0.4392442483E-03       4    7    1         0.2441619511E-01      0.5159094631E-01
          0                 4           1             4    7     1      -0.1747794261E-04       4    7    1        -0.9986239670E-03      0.2109928741E-02

    ------------------------------------------------
       NWT REQUIRED            4 OUTER ITERATIONS 
       AND A TOTAL OF          7 INNER ITERATIONS.
    ------------------------------------------------

 NO OUTPUT CONTROL FOR STRESS PERIOD   35   TIME STEP   10
 
 SOLVING FOR HEAD 
                                                   Max.-Head-Change                         Max.-Flux-Residual
  Residual-Control   Outer-Iter.   Inner-Iter.     Column Row Layer    Maximum-Head-Change  Column Row Layer    Maximum-Flux-Residual          L2-NORM 
          0                 1           2             4    7     1       0.6549123379E-01       4    7    1         0.3445349178E+01      0.7245657366E+01
          0                 2           2             4    7     1      -0.6370577350E-02       4    7    1        -0.3445394128E+00      0.7245483102E+00
          0                 3           2             4    7     1       0.4338120532E-03       4    7    1         0.2411772677E-01      0.5071664772E-01
          0                 4           1             4    7     1      -0.1726179054E-04       4    7    1        -0.9864165954E-03      0.2074220118E-02

    ------------------------------------------------
       NWT REQUIRED            4 OUTER ITERATIONS 
       AND A TOTAL OF          7 INNER ITERATIONS.
    ------------------------------------------------

 NO OUTPUT CONTROL FOR STRESS PERIOD   35   TIME STEP   11
 
 SOLVING FOR HEAD 
                                                   Max.-Head-Change                         Max.-Flux-Residual
  Residual-Control   Outer-Iter.   Inner-Iter.     Column Row Layer    Maximum-Head-Change  Column Row Layer    Maximum-Flux-Residual          L2-NORM 
          0                 1           2             4    7     1       0.6467253101E-01       4    7    1         0.3402735084E+01      0.7124609065E+01
          0                 2           2             4    7     1      -0.6290939594E-02       4    7    1        -0.3402779821E+00      0.7124455975E+00
          0                 3           2             4    7     1       0.4283890205E-03       4    7    1         0.2381942671E-01      0.4986963377E-01
          0                 4           1             4    7     1      -0.1704600285E-04       4    7    1        -0.9742161053E-03      0.2039575241E-02

    ------------------------------------------------
       NWT REQUIRED            4 OUTER ITERATIONS 
       AND A TOTAL OF          7 INNER ITERATIONS.
    ------------------------------------------------

 NO OUTPUT CONTROL FOR STRESS PERIOD   35   TIME STEP   12
 
 SOLVING FOR HEAD 
                                                   Max.-Head-Change                         Max.-Flux-Residual
  Residual-Control   Outer-Iter.   Inner-Iter.     Column Row Layer    Maximum-Head-Change  Column Row Layer    Maximum-Flux-Residual          L2-NORM 
          0                 1           2             4    7     1       0.6385618540E-01       4    7    1         0.3360199979E+01      0.7007278093E+01
          0                 2           2             4    7     1      -0.6211531012E-02       4    7    1        -0.3360244427E+00      0.7007143329E+00
          0                 3           2             4    7     1       0.4229815942E-03       4    7    1         0.2352167909E-01      0.4904858746E-01
          0                 4           1             4    7     1      -0.1683083650E-04       4    7    1        -0.9620382164E-03      0.2006002096E-02

    ------------------------------------------------
       NWT REQUIRED            4 OUTER ITERATIONS 
       AND A TOTAL OF          7 INNER ITERATIONS.
    ------------------------------------------------

 NO OUTPUT CONTROL FOR STRESS PERIOD   35   TIME STEP   13
 
 SOLVING FOR HEAD 
                                                   Max.-Head-Change                         Max.-Flux-Residual
  Residual-Control   Outer-Iter.   Inner-Iter.     Column Row Layer    Maximum-Head-Change  Column Row Layer    Maximum-Flux-Residual          L2-NORM 
          0                 1           2             4    7     1       0.6304310570E-01       4    7    1         0.3317794309E+01      0.6893488066E+01
          0                 2           2             4    7     1      -0.6137359624E-02       4    7    1        -0.3321662108E+00      0.6893695782E+00
          0                 3           2             4    7     1       0.4179307644E-03       4    7    1         0.2325160042E-01      0.4825460749E-01
          0                 4           1             4    7     1      -0.1662985929E-04       4    7    1        -0.9509919903E-03      0.1973548142E-02

    ------------------------------------------------
       NWT REQUIRED            4 OUTER ITERATIONS 
       AND A TOTAL OF          7 INNER ITERATIONS.
    ------------------------------------------------

 NO OUTPUT CONTROL FOR STRESS PERIOD   35   TIME STEP   14
 
 SOLVING FOR HEAD 
                                                   Max.-Head-Change                         Max.-Flux-Residual
  Residual-Control   Outer-Iter.   Inner-Iter.     Column Row Layer    Maximum-Head-Change  Column Row Layer    Maximum-Flux-Residual          L2-NORM 
          0                 1           2             4    7     1       0.6221019285E-01       4    7    1         0.3275273972E+01      0.6783028558E+01
          0                 2           2             4    7     1      -0.6051423140E-02       4    7    1        -0.3275320101E+00      0.6782924369E+00
          0                 3           2             4    7     1       0.4120788192E-03       4    7    1         0.2292720696E-01      0.4747930883E-01
          0                 4           1             4    7     1      -0.1639700485E-04       4    7    1        -0.9377242704E-03      0.1941831944E-02

    ------------------------------------------------
       NWT REQUIRED            4 OUTER ITERATIONS 
       AND A TOTAL OF          7 INNER ITERATIONS.
    ------------------------------------------------

 NO OUTPUT CONTROL FOR STRESS PERIOD   35   TIME STEP   15
 
 SOLVING FOR HEAD 
                                                   Max.-Head-Change                         Max.-Flux-Residual
  Residual-Control   Outer-Iter.   Inner-Iter.     Column Row Layer    Maximum-Head-Change  Column Row Layer    Maximum-Flux-Residual          L2-NORM 
          0                 1           2             4    7     1       0.6138804476E-01       4    7    1         0.3232271286E+01      0.6675710038E+01
          0                 2           2             4    7     1      -0.5971543730E-02       4    7    1        -0.3232316873E+00      0.6675961646E+00
          0                 3           2             4    7     1       0.4066393351E-03       4    7    1         0.2262618478E-01      0.4673069874E-01
          0                 4           1             4    7     1      -0.1618056277E-04       4    7    1        -0.9254124466E-03      0.1911220560E-02

    ------------------------------------------------
       NWT REQUIRED            4 OUTER ITERATIONS 
       AND A TOTAL OF          7 INNER ITERATIONS.
    ------------------------------------------------

 NO OUTPUT CONTROL FOR STRESS PERIOD   35   TIME STEP   16
 
 SOLVING FOR HEAD 
                                                   Max.-Head-Change                         Max.-Flux-Residual
  Residual-Control   Outer-Iter.   Inner-Iter.     Column Row Layer    Maximum-Head-Change  Column Row Layer    Maximum-Flux-Residual          L2-NORM 
          0                 1           2             4    7     1       0.6057158137E-01       4    7    1         0.3189545166E+01      0.6571399006E+01
          0                 2           2             4    7     1      -0.5892029348E-02       4    7    1        -0.3189590174E+00      0.6571318846E+00
          0                 3           2             4    7     1       0.4012247079E-03       4    7    1         0.2232709826E-01      0.4599830411E-01
          0                 4           1             4    7     1      -0.1596510953E-04       4    7    1        -0.9131797788E-03      0.1881274528E-02

    ------------------------------------------------
       NWT REQUIRED            4 OUTER ITERATIONS 
       AND A TOTAL OF          7 INNER ITERATIONS.
    ------------------------------------------------

 NO OUTPUT CONTROL FOR STRESS PERIOD   35   TIME STEP   17
 
 SOLVING FOR HEAD 
                                                   Max.-Head-Change                         Max.-Flux-Residual
  Residual-Control   Outer-Iter.   Inner-Iter.     Column Row Layer    Maximum-Head-Change  Column Row Layer    Maximum-Flux-Residual          L2-NORM 
          0                 1           2             4    7     1       0.5976187323E-01       4    7    1         0.3147138277E+01      0.6470004571E+01
          0                 2           2             4    7     1      -0.5813265917E-02       4    7    1        -0.3147182660E+00      0.6469933965E+00
          0                 3           2             4    7     1       0.3958612199E-03       4    7    1         0.2203024615E-01      0.4528866352E-01
          0                 4           1             4    7     1      -0.1575169151E-04       4    7    1        -0.9010385340E-03      0.1852248172E-02

    ------------------------------------------------
       NWT REQUIRED            4 OUTER ITERATIONS 
       AND A TOTAL OF          7 INNER ITERATIONS.
    ------------------------------------------------

 NO OUTPUT CONTROL FOR STRESS PERIOD   35   TIME STEP   18
 
 SOLVING FOR HEAD 
                                                   Max.-Head-Change                         Max.-Flux-Residual
  Residual-Control   Outer-Iter.   Inner-Iter.     Column Row Layer    Maximum-Head-Change  Column Row Layer    Maximum-Flux-Residual          L2-NORM 
          0                 1           2             4    7     1       0.5895900392E-01       4    7    1         0.3105062104E+01      0.6371384913E+01
          0                 2           2             4    7     1      -0.5735167665E-02       4    7    1        -0.3105105829E+00      0.6371322517E+00
          0                 3           2             4    7     1       0.3905430273E-03       4    7    1         0.2173570882E-01      0.4459849306E-01
          0                 4           1             4    7     1      -0.1554007524E-04       4    7    1        -0.8889919091E-03      0.1824020810E-02

    ------------------------------------------------
       NWT REQUIRED            4 OUTER ITERATIONS 
       AND A TOTAL OF          7 INNER ITERATIONS.
    ------------------------------------------------

 NO OUTPUT CONTROL FOR STRESS PERIOD   35   TIME STEP   19
 
 SOLVING FOR HEAD 
                                                   Max.-Head-Change                         Max.-Flux-Residual
  Residual-Control   Outer-Iter.   Inner-Iter.     Column Row Layer    Maximum-Head-Change  Column Row Layer    Maximum-Flux-Residual          L2-NORM 
          0                 1           2             4    7     1       0.5816352243E-01       4    7    1         0.3063347739E+01      0.6275432208E+01
          0                 2           2             4    7     1      -0.5657788001E-02       4    7    1        -0.3063390776E+00      0.6275377654E+00
          0                 3           2             4    7     1       0.3852737689E-03       4    7    1         0.2144370396E-01      0.4392694595E-01
          0                 4           1             4    7     1      -0.1533040623E-04       4    7    1        -0.8770488964E-03      0.1796540065E-02

    ------------------------------------------------
       NWT REQUIRED            4 OUTER ITERATIONS 
       AND A TOTAL OF          7 INNER ITERATIONS.
    ------------------------------------------------

 NO OUTPUT CONTROL FOR STRESS PERIOD   35   TIME STEP   20
 
 SOLVING FOR HEAD 
                                                   Max.-Head-Change                         Max.-Flux-Residual
  Residual-Control   Outer-Iter.   Inner-Iter.     Column Row Layer    Maximum-Head-Change  Column Row Layer    Maximum-Flux-Residual          L2-NORM 
          0                 1           2             4    7     1       0.5737579073E-01       4    7    1         0.3022016396E+01      0.6182018795E+01
          0                 2           2             4    7     1      -0.5581162146E-02       4    7    1        -0.3022058720E+00      0.6181970639E+00
          0                 3           2             4    7     1       0.3800558428E-03       4    7    1         0.2115438014E-01      0.4327314452E-01
          0                 4           1             4    7     1      -0.1512278040E-04       4    7    1        -0.8652155407E-03      0.1769827016E-02

    ------------------------------------------------
       NWT REQUIRED            4 OUTER ITERATIONS 
       AND A TOTAL OF          7 INNER ITERATIONS.
    ------------------------------------------------

 NO OUTPUT CONTROL FOR STRESS PERIOD   35   TIME STEP   21
 
 SOLVING FOR HEAD 
                                                   Max.-Head-Change                         Max.-Flux-Residual
  Residual-Control   Outer-Iter.   Inner-Iter.     Column Row Layer    Maximum-Head-Change  Column Row Layer    Maximum-Flux-Residual          L2-NORM 
          0                 1           2             4    7     1       0.5659626665E-01       4    7    1         0.2981094099E+01      0.6091049974E+01
          0                 2           2             4    7     1      -0.5505334638E-02       4    7    1        -0.2981135690E+00      0.6091007702E+00
          0                 3           2             4    7     1       0.3748922808E-03       4    7    1         0.2086791949E-01      0.4263646107E-01
          0                 4           1             4    7     1      -0.1491731746E-04       4    7    1        -0.8534992789E-03      0.1743782883E-02

    ------------------------------------------------
       NWT REQUIRED            4 OUTER ITERATIONS 
       AND A TOTAL OF          7 INNER ITERATIONS.
    ------------------------------------------------

 NO OUTPUT CONTROL FOR STRESS PERIOD   35   TIME STEP   22
 
 SOLVING FOR HEAD 
                                                   Max.-Head-Change                         Max.-Flux-Residual
  Residual-Control   Outer-Iter.   Inner-Iter.     Column Row Layer    Maximum-Head-Change  Column Row Layer    Maximum-Flux-Residual          L2-NORM 
          0                 1           2             4    7     1       0.5582509845E-01       4    7    1         0.2940590077E+01      0.6002424667E+01
          0                 2           2             4    7     1      -0.5430319904E-02       4    7    1        -0.2940630919E+00      0.6002387237E+00
          0                 3           2             4    7     1       0.3697840665E-03       4    7    1         0.2058438668E-01      0.4201614847E-01
          0                 4           1             4    7     1      -0.1471405681E-04       4    7    1        -0.8419027749E-03      0.1718419203E-02

    ------------------------------------------------
       NWT REQUIRED            4 OUTER ITERATIONS 
       AND A TOTAL OF          7 INNER ITERATIONS.
    ------------------------------------------------

 NO OUTPUT CONTROL FOR STRESS PERIOD   35   TIME STEP   23
 
 SOLVING FOR HEAD 
                                                   Max.-Head-Change                         Max.-Flux-Residual
  Residual-Control   Outer-Iter.   Inner-Iter.     Column Row Layer    Maximum-Head-Change  Column Row Layer    Maximum-Flux-Residual          L2-NORM 
          0                 1           2             4    7     1       0.5506253235E-01       4    7    1         0.2900519271E+01      0.5916039705E+01
          0                 2           2             4    7     1      -0.5356141901E-02       4    7    1        -0.2900559351E+00      0.5916006788E+00
          0                 3           2             4    7     1       0.3647328301E-03       4    7    1         0.2030388630E-01      0.4141155417E-01
          0                 4           1             4    7     1      -0.1451306313E-04       4    7    1        -0.8304302796E-03      0.1693705608E-02

    ------------------------------------------------
       NWT REQUIRED            4 OUTER ITERATIONS 
       AND A TOTAL OF          7 INNER ITERATIONS.
    ------------------------------------------------

 NO OUTPUT CONTROL FOR STRESS PERIOD   35   TIME STEP   24
 
 SOLVING FOR HEAD 
                                                   Max.-Head-Change                         Max.-Flux-Residual
  Residual-Control   Outer-Iter.   Inner-Iter.     Column Row Layer    Maximum-Head-Change  Column Row Layer    Maximum-Flux-Residual          L2-NORM 
          0                 1           2             4    7     1       0.5430892074E-01       4    7    1         0.2860901704E+01      0.5831819592E+01
          0                 2           2             4    7     1      -0.5282834911E-02       4    7    1        -0.2860941013E+00      0.5831790702E+00
          0                 3           2             4    7     1       0.3597409069E-03       4    7    1         0.2002655854E-01      0.4082208965E-01
          0                 4           1             4    7     1      -0.1431443003E-04       4    7    1        -0.8190875653E-03      0.1669616914E-02

    ------------------------------------------------
       NWT REQUIRED            4 OUTER ITERATIONS 
       AND A TOTAL OF          7 INNER ITERATIONS.
    ------------------------------------------------

 NO OUTPUT CONTROL FOR STRESS PERIOD   35   TIME STEP   25
 
 SOLVING FOR HEAD 
                                                   Max.-Head-Change                         Max.-Flux-Residual
  Residual-Control   Outer-Iter.   Inner-Iter.     Column Row Layer    Maximum-Head-Change  Column Row Layer    Maximum-Flux-Residual          L2-NORM 
          0                 1           2             4    7     1       0.5356444598E-01       4    7    1         0.2821748394E+01      0.5749673287E+01
          0                 2           2             4    7     1      -0.5210416678E-02       4    7    1        -0.2821786925E+00      0.5749648017E+00
          0                 3           2             4    7     1       0.3548095052E-03       4    7    1         0.1975248056E-01      0.4024711005E-01
          0                 4           1             4    7     1      -0.1411820470E-04       4    7    1        -0.8078777507E-03      0.1646083168E-02

    ------------------------------------------------
       NWT REQUIRED            4 OUTER ITERATIONS 
       AND A TOTAL OF          7 INNER ITERATIONS.
    ------------------------------------------------

 NO OUTPUT CONTROL FOR STRESS PERIOD   35   TIME STEP   26
 
 SOLVING FOR HEAD 
                                                   Max.-Head-Change                         Max.-Flux-Residual
  Residual-Control   Outer-Iter.   Inner-Iter.     Column Row Layer    Maximum-Head-Change  Column Row Layer    Maximum-Flux-Residual          L2-NORM 
          0                 1           2             4    7     1       0.5282925890E-01       4    7    1         0.2783068795E+01      0.5669524504E+01
          0                 2           2             4    7     1      -0.5138901876E-02       4    7    1        -0.2783106544E+00      0.5669501762E+00
          0                 3           2             4    7     1       0.3499396233E-03       4    7    1         0.1948171850E-01      0.3968609165E-01
          0                 4           1             4    7     1      -0.1392442757E-04       4    7    1        -0.7968035657E-03      0.1623139197E-02

    ------------------------------------------------
       NWT REQUIRED            4 OUTER ITERATIONS 
       AND A TOTAL OF          7 INNER ITERATIONS.
    ------------------------------------------------

 NO OUTPUT CONTROL FOR STRESS PERIOD   35   TIME STEP   27
 
 SOLVING FOR HEAD 
                                                   Max.-Head-Change                         Max.-Flux-Residual
  Residual-Control   Outer-Iter.   Inner-Iter.     Column Row Layer    Maximum-Head-Change  Column Row Layer    Maximum-Flux-Residual          L2-NORM 
          0                 1           2             4    7     1       0.5210348371E-01       4    7    1         0.2744870729E+01      0.5591299895E+01
          0                 2           2             4    7     1      -0.5068302592E-02       4    7    1        -0.2744907694E+00      0.5591280257E+00
          0                 3           2             4    7     1       0.3451320852E-03       4    7    1         0.1921432718E-01      0.3913859476E-01
          0                 4           1             4    7     1      -0.1373313097E-04       4    7    1        -0.7858672470E-03      0.1600742841E-02

    ------------------------------------------------
       NWT REQUIRED            4 OUTER ITERATIONS 
       AND A TOTAL OF          7 INNER ITERATIONS.
    ------------------------------------------------

 NO OUTPUT CONTROL FOR STRESS PERIOD   35   TIME STEP   28
 
 SOLVING FOR HEAD 
                                                   Max.-Head-Change                         Max.-Flux-Residual
  Residual-Control   Outer-Iter.   Inner-Iter.     Column Row Layer    Maximum-Head-Change  Column Row Layer    Maximum-Flux-Residual          L2-NORM 
          0                 1           2             4    7     1       0.5138722700E-01       4    7    1         0.2707160635E+01      0.5514928791E+01
          0                 2           2             4    7     1      -0.4998629197E-02       4    7    1        -0.2707196817E+00      0.5514911304E+00
          0                 3           2             4    7     1       0.3403875964E-03       4    7    1         0.1895035168E-01      0.3860402485E-01
          0                 4           1             4    7     1      -0.1354434335E-04       4    7    1        -0.7750706188E-03      0.1578905464E-02

    ------------------------------------------------
       NWT REQUIRED            4 OUTER ITERATIONS 
       AND A TOTAL OF          7 INNER ITERATIONS.
    ------------------------------------------------

 NO OUTPUT CONTROL FOR STRESS PERIOD   35   TIME STEP   29
 
 SOLVING FOR HEAD 
                                                   Max.-Head-Change                         Max.-Flux-Residual
  Residual-Control   Outer-Iter.   Inner-Iter.     Column Row Layer    Maximum-Head-Change  Column Row Layer    Maximum-Flux-Residual          L2-NORM 
          0                 1           2             4    7     1       0.5068056685E-01       4    7    1         0.2669944040E+01      0.5440344259E+01
          0                 2           2             4    7     1      -0.4929889289E-02       4    7    1        -0.2669979442E+00      0.5440328771E+00
          0                 3           2             4    7     1       0.3357066751E-03       4    7    1         0.1868983069E-01      0.3808197908E-01
          0                 4           1             4    7     1      -0.1335808531E-04       4    7    1        -0.7644153020E-03      0.1557537895E-02

    ------------------------------------------------
       NWT REQUIRED            4 OUTER ITERATIONS 
       AND A TOTAL OF          7 INNER ITERATIONS.
    ------------------------------------------------

 NO OUTPUT CONTROL FOR STRESS PERIOD   35   TIME STEP   30



 STREAM LISTING     PERIOD     35   STEP       30

 LAYER ROW COL. STREAM  RCH.  FLOW INTO     FLOW TO   FLOW OUT OF   OVRLND.     DIRECT     STREAM       STREAM     STREAM     STREAM   STREAMBED  STREAMBED
                SEG.NO.  NO.  STRM. RCH.    AQUIFER    STRM. RCH.    RUNOFF     PRECIP       ET          HEAD       DEPTH      WIDTH   CONDCTNC.   GRADIENT

   1    1    1     1     1    2.6249E+01  2.5084E-01   2.5998E+01  0.000E+00  0.000E+00  0.000E+00  1.09424E+03  1.197E+00  1.328E+01  5.977E-02  1.399E+00
   1    2    2     1     2    2.5998E+01  3.8795E-01   2.5610E+01  0.000E+00  0.000E+00  0.000E+00  1.08925E+03  1.192E+00  1.322E+01  9.254E-02  1.397E+00
   1    3    3     1     3    2.5610E+01  3.3035E-01   2.5280E+01  0.000E+00  0.000E+00  0.000E+00  1.08361E+03  1.187E+00  1.315E+01  7.890E-02  1.396E+00
   1    3    4     1     4    2.5280E+01  3.0378E-01   2.4976E+01  0.000E+00  0.000E+00  0.000E+00  1.07859E+03  1.182E+00  1.309E+01  7.264E-02  1.394E+00
   1    4    5     2     1    2.2976E+01  3.2316E-01   2.2653E+01  0.000E+00  0.000E+00  0.000E+00  1.07308E+03  1.143E+00  1.200E+01  7.800E-02  1.381E+00
   1    5    6     2     2    2.2653E+01  2.4807E-01   2.2405E+01  0.000E+00  0.000E+00  0.000E+00  1.06764E+03  1.134E+00  1.200E+01  6.000E-02  1.378E+00
   1    6    6     2     3    2.2405E+01  2.4762E-01   2.2157E+01  0.000E+00  0.000E+00  0.000E+00  1.06292E+03  1.127E+00  1.200E+01  6.000E-02  1.376E+00
   1    7    6     2     4    2.2157E+01  2.4717E-01   2.1910E+01  0.000E+00  0.000E+00  0.000E+00  1.05819E+03  1.119E+00  1.200E+01  6.000E-02  1.373E+00
   1    8    6     2     5    2.1910E+01  2.4671E-01   2.1664E+01  0.000E+00  0.000E+00  0.000E+00  1.05347E+03  1.112E+00  1.200E+01  6.000E-02  1.371E+00
   1    3    5     3     1    2.0000E+00  2.8252E-01   1.7175E+00  0.000E+00  0.000E+00  0.000E+00  1.07555E+03  1.909E+00  9.636E+00  7.227E-02  1.955E+00
   1    3    6     3     2    1.7175E+00  2.4905E-01   1.4684E+00  0.000E+00  0.000E+00  0.000E+00  1.07264E+03  1.727E+00  8.909E+00  6.682E-02  1.864E+00
   1    3    7     3     3    1.4684E+00  1.9718E-01   1.2712E+00  0.000E+00  0.000E+00  0.000E+00  1.06987E+03  1.555E+00  8.218E+00  5.547E-02  1.777E+00
   1    4    8     3     4    1.2712E+00  2.2567E-01   1.0456E+00  0.000E+00  0.000E+00  0.000E+00  1.06682E+03  1.364E+00  7.455E+00  6.709E-02  1.682E+00
   1    5    8     3     5    1.0456E+00  1.5790E-01   8.8768E-01  0.000E+00  0.000E+00  0.000E+00  1.06362E+03  1.164E+00  6.655E+00  4.991E-02  1.582E+00
   1    6    8     3     6    8.8768E-01  5.5980E-02   8.3170E-01  0.000E+00  0.000E+00  0.000E+00  1.06158E+03  1.036E+00  6.145E+00  1.844E-02  1.518E+00
   1    5   10     4     1    1.0000E+01  9.0919E-02   9.9091E+00  0.000E+00  0.000E+00  0.000E+00  1.07836E+03  6.368E-01  1.000E+01  2.500E-02  1.212E+00
   1    5    9     4     2    9.9091E+00  1.8158E-01   9.7275E+00  0.000E+00  0.000E+00  0.000E+00  1.07154E+03  6.315E-01  1.000E+01  5.000E-02  1.211E+00
   1    6    8     4     3    9.7275E+00  1.2689E-01   9.6006E+00  0.000E+00  0.000E+00  0.000E+00  1.06381E+03  6.256E-01  1.000E+01  3.500E-02  1.209E+00
   1    6    8     5     1    1.0432E+01  2.2686E-01   1.0205E+01  0.000E+00  0.000E+00  0.000E+00  1.05868E+03  6.790E-01  1.542E+01  6.166E-02  1.226E+00
   1    7    7     5     2    1.0205E+01  2.7894E-01   9.9265E+00  0.000E+00  0.000E+00  0.000E+00  1.05417E+03  6.732E-01  1.519E+01  7.594E-02  1.224E+00
   1    8    7     5     3    9.9265E+00  1.9221E-01   9.7343E+00  0.000E+00  0.000E+00  0.000E+00  1.04992E+03  6.676E-01  1.497E+01  5.241E-02  1.223E+00
   1    8    6     5     4    9.7343E+00  1.3577E-01   9.5985E+00  0.000E+00  0.000E+00  0.000E+00  1.04691E+03  6.637E-01  1.482E+01  3.706E-02  1.221E+00
   1    9    6     6     1    3.1262E+01  2.6357E-01   3.0999E+01  0.000E+00  0.000E+00  0.000E+00  1.04412E+03  1.393E+00  1.200E+01  6.000E-02  1.464E+00
   1   10    7     6     2    3.0999E+01  2.6314E-01   3.0735E+01  0.000E+00  0.000E+00  0.000E+00  1.03957E+03  1.386E+00  1.200E+01  6.000E-02  1.462E+00
   1   11    7     6     3    3.0735E+01  2.6272E-01   3.0473E+01  0.000E+00  0.000E+00  0.000E+00  1.03501E+03  1.379E+00  1.200E+01  6.000E-02  1.460E+00
   1   12    7     6     4    3.0473E+01  2.6229E-01   3.0210E+01  0.000E+00  0.000E+00  0.000E+00  1.03046E+03  1.371E+00  1.200E+01  6.000E-02  1.457E+00
   1   13    7     6     5    3.0210E+01  1.1790E-02   3.0199E+01  0.000E+00  0.000E+00  0.000E+00  1.02728E+03  1.368E+00  1.200E+01  2.400E-02  1.638E-01
   1   14    9     7     1    1.5000E+02  1.3595E+00   1.4864E+02  0.000E+00  0.000E+00  0.000E+00  1.03987E+03  2.288E+00  5.529E+01  5.593E-01  8.102E-01
   1   13    8     7     2    1.4864E+02  1.9237E+00   1.4672E+02  0.000E+00  0.000E+00  0.000E+00  1.03478E+03  2.279E+00  5.526E+01  6.148E-01  1.043E+00
   1   13    7     7     3    1.4672E+02  1.6212E+00   1.4510E+02  0.000E+00  0.000E+00  0.000E+00  1.02969E+03  2.269E+00  5.521E+01  5.584E-01  9.677E-01
   1   13    6     8     1    1.7529E+02  1.0874E+00   1.7421E+02  0.000E+00  0.000E+00  0.000E+00  1.02486E+03  2.983E+00  4.325E+01  4.407E-01  8.224E-01
   1   13    5     8     2    1.7421E+02  3.2145E-01   1.7389E+02  0.000E+00  0.000E+00  0.000E+00  1.01860E+03  2.978E+00  4.319E+01  4.401E-01  2.435E-01
   1   13    4     8     3    1.7389E+02 -1.9597E+00   1.7585E+02  0.000E+00  0.000E+00  0.000E+00  1.01236E+03  2.984E+00  4.326E+01  4.409E+00 -1.482E-01
   1   13    3     8     4    1.7585E+02 -3.4388E+00   1.7928E+02  0.000E+00  0.000E+00  0.000E+00  1.00613E+03  3.001E+00  4.351E+01  4.434E+00 -2.585E-01
   1   13    2     8     5    1.7928E+02 -2.5442E+00   1.8183E+02  0.000E+00  0.000E+00  0.000E+00  9.99895E+02  3.020E+00  4.378E+01  4.462E+00 -1.901E-01
   1   13    1     8     6    1.8183E+02 -2.0020E+00   1.8383E+02  0.000E+00  0.000E+00  0.000E+00  9.94909E+02  3.034E+00  4.399E+01  2.690E+00 -2.481E-01
   1    8    6     9     1    0.0000E+00  0.0000E+00   0.0000E+00  0.000E+00  0.000E+00  0.000E+00  1.07875E+03  0.000E+00  4.000E+00  0.000E+00  1.000E+00
   1    8    5     9     2    0.0000E+00  0.0000E+00   0.0000E+00  0.000E+00  0.000E+00  0.000E+00  1.07825E+03  0.000E+00  4.000E+00  0.000E+00  1.000E+00





UNSATURATED ZONE PACKAGE VOLUMETRIC BUDGET FOR  TIME STEP    30 STRESS PERIOD   35
  ------------------------------------------------------------------------------



     CUMULATIVE VOLUMES      L**3       RATES FOR THIS TIME STEP      L**3/T
     ------------------                 ------------------------

           IN:                                      IN:
           ---                                      ---
        INFILTRATION =  1279634470.7040          INFILTRATION =           1.5675

          OUT:                                     OUT:
          ----                                     ----
              UZF ET =  1278827551.8840                UZF ET =           1.5675
        UZF RECHARGE =       73224.0000          UZF RECHARGE =       0.0000E+00

            IN - OUT =      733694.8200              IN - OUT =       0.0000E+00

          STORAGE:                                 STORAGE:
          --------                                 --------
      STORAGE CHANGE =      733694.8611        STORAGE CHANGE =      -3.3198E-16

 PERCENT DISCREPANCY IS DIFFERENCE BETWEEN IN-OUT MINUS CHANGE IN STORAGE
 DIVIDED BY THE AVERAGE OF IN AND OUT TIMES 100

 PERCENT DISCREPANCY =           0.00     PERCENT DISCREPANCY =           0.00






1
  VOLUMETRIC BUDGET FOR AGRICULTURAL FIELDS AT  END OF TIME STEP   30, STRESS PERIOD  35
  ------------------------------------------------------------------------------

     CUMULATIVE VOLUMES      L**3       RATES FOR THIS TIME STEP      L**3/T
     ------------------                 ------------------------

           IN:                                      IN:
           ---                                      ---
               AG WELLS  =  1203775104.0000                 AG WELLS  =           0.7200
      DIVERSION SEGMENTS =           0.0000        DIVERSION SEGMENTS =           0.0000
       IRRIGATION PONDS  =           0.0000         IRRIGATION PONDS  =           0.0000
           GW IRRIGATION =           0.0000             GW IRRIGATION =           0.0000
           SW IRRIGATION =           0.0000             SW IRRIGATION =           0.0000
        SYSTEM LOSSES GW =           0.0000          SYSTEM LOSSES GW =           0.0000
        SYSTEM LOSSES SW =           0.0000          SYSTEM LOSSES SW =           0.0000

                TOTAL IN =  1203775104.0000                  TOTAL IN =           0.7200

          OUT:                                     OUT:
          ----                                     ----
               AG WELLS  =           0.0000                 AG WELLS  =           0.0000
      DIVERSION SEGMENTS =           0.0000        DIVERSION SEGMENTS =           0.0000
       IRRIGATION PONDS  =           0.0000         IRRIGATION PONDS  =           0.0000
           GW IRRIGATION =  1203775104.0000             GW IRRIGATION =           0.7200
           SW IRRIGATION =           0.0000             SW IRRIGATION =           0.0000
        SYSTEM LOSSES GW =           0.0000          SYSTEM LOSSES GW =           0.0000
        SYSTEM LOSSES SW =           0.0000          SYSTEM LOSSES SW =           0.0000

               TOTAL OUT =  1203775104.0000                 TOTAL OUT =           0.7200

                IN - OUT =           0.0000                  IN - OUT =           0.0000

     PERCENT DISCREPANCY =           0.00         PERCENT DISCREPANCY =           0.00



1
  VOLUMETRIC BUDGET FOR ENTIRE MODEL AT END OF TIME STEP   30, STRESS PERIOD  35
  ------------------------------------------------------------------------------

     CUMULATIVE VOLUMES      L**3       RATES FOR THIS TIME STEP      L**3/T
     ------------------                 ------------------------

           IN:                                      IN:
           ---                                      ---
             STORAGE     =  1590631936.0000               STORAGE     =          12.7309
       CONSTANT HEAD     =           0.0000         CONSTANT HEAD     =           0.0000
     HEAD DEP BOUNDS     =    25607552.0000       HEAD DEP BOUNDS     =           0.2874
      STREAM LEAKAGE     =  1102074496.0000        STREAM LEAKAGE     =          12.3638
        UZF RECHARGE     =       73223.9531          UZF RECHARGE     =           0.0000
               GW ET     =           0.0000                 GW ET     =           0.0000
     SURFACE LEAKAGE     =           0.0000       SURFACE LEAKAGE     =           0.0000
           AG WELLS      =           0.0000             AG WELLS      =           0.0000

                TOTAL IN =  2718387200.0000                  TOTAL IN =          25.3820

          OUT:                                     OUT:
          ----                                     ----
             STORAGE     =   560419008.0000               STORAGE     =          14.4266
       CONSTANT HEAD     =           0.0000         CONSTANT HEAD     =           0.0000
     HEAD DEP BOUNDS     =    26168928.0000       HEAD DEP BOUNDS     =           0.2908
      STREAM LEAKAGE     =   919656448.0000        STREAM LEAKAGE     =           9.9446
        UZF RECHARGE     =           0.0000          UZF RECHARGE     =           0.0000
               GW ET     =     8372419.5000                 GW ET     =           0.0000
     SURFACE LEAKAGE     =           0.0000       SURFACE LEAKAGE     =           0.0000
           AG WELLS      =  1203775104.0000             AG WELLS      =           0.7200

               TOTAL OUT =  2718391808.0000                 TOTAL OUT =          25.3820

                IN - OUT =       -4608.0000                  IN - OUT =       9.5367E-06

     PERCENT DISCREPANCY =          -0.00         PERCENT DISCREPANCY =           0.00






         TIME SUMMARY AT END OF TIME STEP   30 IN STRESS PERIOD   35
                    SECONDS     MINUTES      HOURS       DAYS        YEARS
                    -----------------------------------------------------------
   TIME STEP LENGTH  87667.      1461.1      24.352      1.0147     2.77799E-03
 STRESS PERIOD TIME 2.63000E+06  43833.      730.56      30.440     8.33397E-02
         TOTAL TIME 8.95061E+07 1.49177E+06  24863.      1036.0      2.8363    
1
1
                            STRESS PERIOD NO.   36, LENGTH =   2630000.    
                            -----------------------------------------------

                              NUMBER OF TIME STEPS =    30

                               MULTIPLIER FOR DELT =     1.000

                            INITIAL TIME STEP SIZE =   87666.66    

 REUSING NON-PARAMETER GHB CELLS FROM LAST STRESS PERIOD

      2 GHB CELLS

 REUSING STREAM SEGMENT DATA FROM LAST STRESS PERIOD



            AREAL INFILTRATION RATE
 READING ON UNIT   19 WITH FORMAT: (FREE)              

            1           2           3           4           5           6           7           8           9          10
 ........................................................................................................................
   1   1.0000E-10  2.0000E-10   0.000       0.000       0.000       0.000       0.000       0.000       0.000       0.000    
   2   2.0000E-10  1.0000E-10  2.0000E-10   0.000       0.000      8.0000E-10  8.0000E-10  5.0000E-10   0.000       0.000    
   3    0.000      5.0000E-10  1.0000E-10  1.0000E-10  8.0000E-10  8.0000E-10  5.0000E-10  5.0000E-10   0.000       0.000    
   4   8.0000E-10  5.0000E-10  1.0000E-10  1.0000E-10  1.0000E-10  1.0000E-10  1.0000E-10  1.0000E-10  2.0000E-10   0.000    
   5   8.0000E-10  5.0000E-10  1.0000E-10  1.0000E-10  1.0000E-10  1.0000E-10  1.0000E-10  1.0000E-10  1.0000E-10  1.0000E-10
   6   8.0000E-10  5.0000E-10  5.0000E-10  2.0000E-10  2.0000E-10  1.0000E-10  1.0000E-10  1.0000E-10  1.0000E-10  5.0000E-10
   7   8.0000E-10  5.0000E-10  5.0000E-10  2.0000E-10  2.0000E-10  1.0000E-10  1.0000E-10  2.0000E-10  2.0000E-10   0.000    
   8    0.000      5.0000E-10  5.0000E-10  2.0000E-10  2.0000E-10  1.0000E-10  1.0000E-10  2.0000E-10  5.0000E-10   0.000    
   9    0.000      5.0000E-10  5.0000E-10  2.0000E-10  2.0000E-10  1.0000E-10  1.0000E-10  2.0000E-10  5.0000E-10   0.000    
  10    0.000      5.0000E-10  5.0000E-10  2.0000E-10  2.0000E-10  1.0000E-10  1.0000E-10  2.0000E-10  5.0000E-10  8.0000E-10
  11    0.000      1.0000E-10  1.0000E-10  1.0000E-10  1.0000E-10  1.0000E-10  1.0000E-10  2.0000E-10  5.0000E-10   0.000    
  12   1.0000E-10  1.0000E-10  1.0000E-10  1.0000E-10  1.0000E-10  1.0000E-10  1.0000E-10  1.0000E-10  2.0000E-10   0.000    
  13   1.0000E-10  1.0000E-10  2.0000E-10  2.0000E-10  2.0000E-10  2.0000E-10  2.0000E-10  1.0000E-10  1.0000E-10   0.000    
  14    0.000      2.0000E-10  5.0000E-10  5.0000E-10  5.0000E-10  5.0000E-10  5.0000E-10  2.0000E-10  1.0000E-10   0.000    
  15    0.000       0.000      8.0000E-10  8.0000E-10  8.0000E-10  8.0000E-10   0.000       0.000       0.000       0.000    

                  ET RATE =  5.000000E-10

 USING ET EXTINCTION DEPTH FROM PREVIOUS STRESS PERIOD. CURRENT PERIOD IS:      36

 USING EXTINCTION WATER CONTENT FROM PREVIOUS STRESS PERIOD. CURRENT PERIOD IS:      36

 USING AIR ENTRY PRESSURE FROM PREVIOUS STRESS PERIOD. CURRENT PERIOD IS:      36

 USING ROOT PRESSURE HEAD FROM PREVIOUS STRESS PERIOD. CURRENT PERIOD IS:      36

 USING ROOT ACTIVITY FROM PREVIOUS STRESS PERIOD. CURRENT PERIOD IS:      36

 PROCESSING AG STRESS PERIOD DATA

 READING AG STRESS PERIOD DATA

 READING IRRIGATION SEGMENT

 READING IRRIGATION WELL

 READING SUPPLEMENTAL WELL

 NO IRRPOND OR REUSING IRRPOND DATA FROM LAST STRESS PERIOD

 END PROCESSING AG STRESS PERIOD DATA OPTIONS
 
 SOLVING FOR HEAD 
                                                   Max.-Head-Change                         Max.-Flux-Residual
  Residual-Control   Outer-Iter.   Inner-Iter.     Column Row Layer    Maximum-Head-Change  Column Row Layer    Maximum-Flux-Residual          L2-NORM 
          0                 1           2             4    7     1       0.5228244041E-01       4    7    1         0.2753232255E+01      0.5638396189E+01
          0                 2           2             4    7     1      -0.5085710076E-02       4    7    1        -0.2753269108E+00      0.5638386371E+00
          0                 3           2             4    7     1       0.3463174715E-03       4    7    1         0.1927285721E-01      0.3946841010E-01
          0                 4           1             4    7     1      -0.1378029875E-04       4    7    1        -0.7882611269E-03      0.1614237574E-02

    ------------------------------------------------
       NWT REQUIRED            4 OUTER ITERATIONS 
       AND A TOTAL OF          7 INNER ITERATIONS.
    ------------------------------------------------

 NO OUTPUT CONTROL FOR STRESS PERIOD   36   TIME STEP    1
 
 SOLVING FOR HEAD 
                                                   Max.-Head-Change                         Max.-Flux-Residual
  Residual-Control   Outer-Iter.   Inner-Iter.     Column Row Layer    Maximum-Head-Change  Column Row Layer    Maximum-Flux-Residual          L2-NORM 
          0                 1           2             4    7     1       0.5158345401E-01       4    7    1         0.2716463102E+01      0.5578244725E+01
          0                 2           2             4    7     1      -0.5017716670E-02       4    7    1        -0.2716499215E+00      0.5577785614E+00
          0                 3           2             4    7     1       0.3416873831E-03       4    7    1         0.1901546855E-01      0.3904007385E-01
          0                 4           1             4    7     1      -0.1359606304E-04       4    7    1        -0.7777339067E-03      0.1596463185E-02

    ------------------------------------------------
       NWT REQUIRED            4 OUTER ITERATIONS 
       AND A TOTAL OF          7 INNER ITERATIONS.
    ------------------------------------------------

 NO OUTPUT CONTROL FOR STRESS PERIOD   36   TIME STEP    2
 
 SOLVING FOR HEAD 
                                                   Max.-Head-Change                         Max.-Flux-Residual
  Residual-Control   Outer-Iter.   Inner-Iter.     Column Row Layer    Maximum-Head-Change  Column Row Layer    Maximum-Flux-Residual          L2-NORM 
          0                 1           2             4    7     1       0.5089321151E-01       4    7    1         0.2680141936E+01      0.5505097160E+01
          0                 2           2             4    7     1      -0.4950573810E-02       4    7    1        -0.2680177309E+00      0.5504633228E+00
          0                 3           2             4    7     1       0.3371152138E-03       4    7    1         0.1876121580E-01      0.3852738391E-01
          0                 4           1             4    7     1      -0.1341413185E-04       4    7    1        -0.7673349412E-03      0.1575473284E-02

    ------------------------------------------------
       NWT REQUIRED            4 OUTER ITERATIONS 
       AND A TOTAL OF          7 INNER ITERATIONS.
    ------------------------------------------------

 NO OUTPUT CONTROL FOR STRESS PERIOD   36   TIME STEP    3
 
 SOLVING FOR HEAD 
                                                   Max.-Head-Change                         Max.-Flux-Residual
  Residual-Control   Outer-Iter.   Inner-Iter.     Column Row Layer    Maximum-Head-Change  Column Row Layer    Maximum-Flux-Residual          L2-NORM 
          0                 1           2             4    7     1       0.5021194577E-01       4    7    1         0.2644281374E+01      0.5431956156E+01
          0                 2           2             4    7     1      -0.4884304144E-02       4    7    1        -0.2644316007E+00      0.5431554444E+00
          0                 3           2             4    7     1       0.3326025061E-03       4    7    1         0.1851018727E-01      0.3801704648E-01
          0                 4           1             4    7     1      -0.1323456744E-04       4    7    1        -0.7570678772E-03      0.1554691011E-02

    ------------------------------------------------
       NWT REQUIRED            4 OUTER ITERATIONS 
       AND A TOTAL OF          7 INNER ITERATIONS.
    ------------------------------------------------

 NO OUTPUT CONTROL FOR STRESS PERIOD   36   TIME STEP    4
 
 SOLVING FOR HEAD 
                                                   Max.-Head-Change                         Max.-Flux-Residual
  Residual-Control   Outer-Iter.   Inner-Iter.     Column Row Layer    Maximum-Head-Change  Column Row Layer    Maximum-Flux-Residual          L2-NORM 
          0                 1           2             4    7     1       0.4953971834E-01       4    7    1         0.2608886226E+01      0.5360592329E+01
          0                 2           2             4    7     1      -0.4818913665E-02       4    7    1        -0.2608920122E+00      0.5360236942E+00
          0                 3           2             4    7     1       0.3281496676E-03       4    7    1         0.1826241668E-01      0.3751824577E-01
          0                 4           1             4    7     1      -0.1305738468E-04       4    7    1        -0.7469340346E-03      0.1534349688E-02

    ------------------------------------------------
       NWT REQUIRED            4 OUTER ITERATIONS 
       AND A TOTAL OF          7 INNER ITERATIONS.
    ------------------------------------------------

 NO OUTPUT CONTROL FOR STRESS PERIOD   36   TIME STEP    5
 
 SOLVING FOR HEAD 
                                                   Max.-Head-Change                         Max.-Flux-Residual
  Residual-Control   Outer-Iter.   Inner-Iter.     Column Row Layer    Maximum-Head-Change  Column Row Layer    Maximum-Flux-Residual          L2-NORM 
          0                 1           2             4    7     1       0.4887657773E-01       4    7    1         0.2573959684E+01      0.5290929494E+01
          0                 2           2             4    7     1      -0.4754407090E-02       4    7    1        -0.2573992847E+00      0.5290615261E+00
          0                 3           2             4    7     1       0.3237570195E-03       4    7    1         0.1801792635E-01      0.3703129955E-01
          0                 4           1             4    7     1      -0.1288259704E-04       4    7    1        -0.7369343659E-03      0.1514598220E-02

    ------------------------------------------------
       NWT REQUIRED            4 OUTER ITERATIONS 
       AND A TOTAL OF          7 INNER ITERATIONS.
    ------------------------------------------------

 NO OUTPUT CONTROL FOR STRESS PERIOD   36   TIME STEP    6
 
 SOLVING FOR HEAD 
                                                   Max.-Head-Change                         Max.-Flux-Residual
  Residual-Control   Outer-Iter.   Inner-Iter.     Column Row Layer    Maximum-Head-Change  Column Row Layer    Maximum-Flux-Residual          L2-NORM 
          0                 1           2             4    7     1       0.4822255701E-01       4    7    1         0.2539504264E+01      0.5222897642E+01
          0                 2           2             4    7     1      -0.4690787640E-02       4    7    1        -0.2539536700E+00      0.5222619542E+00
          0                 3           2             4    7     1       0.3194247811E-03       4    7    1         0.1777673389E-01      0.3655560398E-01
          0                 4           1             4    7     1      -0.1271021338E-04       4    7    1        -0.7270695789E-03      0.1494944986E-02

    ------------------------------------------------
       NWT REQUIRED            4 OUTER ITERATIONS 
       AND A TOTAL OF          7 INNER ITERATIONS.
    ------------------------------------------------

 NO OUTPUT CONTROL FOR STRESS PERIOD   36   TIME STEP    7
 
 SOLVING FOR HEAD 
                                                   Max.-Head-Change                         Max.-Flux-Residual
  Residual-Control   Outer-Iter.   Inner-Iter.     Column Row Layer    Maximum-Head-Change  Column Row Layer    Maximum-Flux-Residual          L2-NORM 
          0                 1           2             4    7     1       0.4757767220E-01       4    7    1         0.2505521681E+01      0.5156431315E+01
          0                 2           2             4    7     1      -0.4628056874E-02       4    7    1        -0.2505553396E+00      0.5156184500E+00
          0                 3           2             4    7     1       0.3151530590E-03       4    7    1         0.1753885136E-01      0.3609088396E-01
          0                 4           1             4    7     1      -0.1254023703E-04       4    7    1        -0.7173401593E-03      0.1475975496E-02

    ------------------------------------------------
       NWT REQUIRED            4 OUTER ITERATIONS 
       AND A TOTAL OF          7 INNER ITERATIONS.
    ------------------------------------------------

 NO OUTPUT CONTROL FOR STRESS PERIOD   36   TIME STEP    8
 
 SOLVING FOR HEAD 
                                                   Max.-Head-Change                         Max.-Flux-Residual
  Residual-Control   Outer-Iter.   Inner-Iter.     Column Row Layer    Maximum-Head-Change  Column Row Layer    Maximum-Flux-Residual          L2-NORM 
          0                 1           2             4    7     1       0.4694205922E-01       4    7    1         0.2472020033E+01      0.5091472021E+01
          0                 2           2             4    7     1      -0.4566228015E-02       4    7    1        -0.2472051035E+00      0.5091252613E+00
          0                 3           2             4    7     1       0.3109427531E-03       4    7    1         0.1730433539E-01      0.3563662557E-01
          0                 4           1             4    7     1      -0.1237270542E-04       4    7    1        -0.7077484458E-03      0.1457394347E-02

    ------------------------------------------------
       NWT REQUIRED            4 OUTER ITERATIONS 
       AND A TOTAL OF          7 INNER ITERATIONS.
    ------------------------------------------------

 NO OUTPUT CONTROL FOR STRESS PERIOD   36   TIME STEP    9
 
 SOLVING FOR HEAD 
                                                   Max.-Head-Change                         Max.-Flux-Residual
  Residual-Control   Outer-Iter.   Inner-Iter.     Column Row Layer    Maximum-Head-Change  Column Row Layer    Maximum-Flux-Residual          L2-NORM 
          0                 1           2             4    7     1       0.4631556705E-01       4    7    1         0.2438991833E+01      0.5027964598E+01
          0                 2           2             4    7     1      -0.4505286375E-02       4    7    1        -0.2439022130E+00      0.5027769315E+00
          0                 3           2             4    7     1       0.3067928633E-03       4    7    1         0.1707313362E-01      0.3519151272E-01
          0                 4           1             4    7     1      -0.1220757709E-04       4    7    1        -0.6982922691E-03      0.1439285766E-02

    ------------------------------------------------
       NWT REQUIRED            4 OUTER ITERATIONS 
       AND A TOTAL OF          7 INNER ITERATIONS.
    ------------------------------------------------

 NO OUTPUT CONTROL FOR STRESS PERIOD   36   TIME STEP   10
 
 SOLVING FOR HEAD 
                                                   Max.-Head-Change                         Max.-Flux-Residual
  Residual-Control   Outer-Iter.   Inner-Iter.     Column Row Layer    Maximum-Head-Change  Column Row Layer    Maximum-Flux-Residual          L2-NORM 
          0                 1           2             4    7     1       0.4569831004E-01       4    7    1         0.2406443788E+01      0.4965859891E+01
          0                 2           2             4    7     1      -0.4445243076E-02       4    7    1        -0.2406473389E+00      0.4965685331E+00
          0                 3           2             4    7     1       0.3027041473E-03       4    7    1         0.1684529299E-01      0.3475800630E-01
          0                 4           1             4    7     1      -0.1204488326E-04       4    7    1        -0.6889735691E-03      0.1421467344E-02

    ------------------------------------------------
       NWT REQUIRED            4 OUTER ITERATIONS 
       AND A TOTAL OF          7 INNER ITERATIONS.
    ------------------------------------------------

 NO OUTPUT CONTROL FOR STRESS PERIOD   36   TIME STEP   11
 
 SOLVING FOR HEAD 
                                                   Max.-Head-Change                         Max.-Flux-Residual
  Residual-Control   Outer-Iter.   Inner-Iter.     Column Row Layer    Maximum-Head-Change  Column Row Layer    Maximum-Flux-Residual          L2-NORM 
          0                 1           2             4    7     1       0.4509024613E-01       4    7    1         0.2374374560E+01      0.4905095320E+01
          0                 2           2             4    7     1      -0.4386094032E-02       4    7    1        -0.2374403475E+00      0.4904939402E+00
          0                 3           2             4    7     1       0.2986763263E-03       4    7    1         0.1662080414E-01      0.3433303434E-01
          0                 4           1             4    7     1      -0.1188461228E-04       4    7    1        -0.6797919530E-03      0.1404132548E-02

    ------------------------------------------------
       NWT REQUIRED            4 OUTER ITERATIONS 
       AND A TOTAL OF          7 INNER ITERATIONS.
    ------------------------------------------------

 NO OUTPUT CONTROL FOR STRESS PERIOD   36   TIME STEP   12
 
 SOLVING FOR HEAD 
                                                   Max.-Head-Change                         Max.-Flux-Residual
  Residual-Control   Outer-Iter.   Inner-Iter.     Column Row Layer    Maximum-Head-Change  Column Row Layer    Maximum-Flux-Residual          L2-NORM 
          0                 1           2             4    7     1       0.4449119630E-01       4    7    1         0.2342774695E+01      0.4845635180E+01
          0                 2           2             4    7     1      -0.4327821826E-02       4    7    1        -0.2342802935E+00      0.4845496003E+00
          0                 3           2             4    7     1       0.2947082150E-03       4    7    1         0.1639960091E-01      0.3391707492E-01
          0                 4           1             4    7     1      -0.1172671754E-04       4    7    1        -0.6707447299E-03      0.1387131726E-02

    ------------------------------------------------
       NWT REQUIRED            4 OUTER ITERATIONS 
       AND A TOTAL OF          7 INNER ITERATIONS.
    ------------------------------------------------

 NO OUTPUT CONTROL FOR STRESS PERIOD   36   TIME STEP   13
 
 SOLVING FOR HEAD 
                                                   Max.-Head-Change                         Max.-Flux-Residual
  Residual-Control   Outer-Iter.   Inner-Iter.     Column Row Layer    Maximum-Head-Change  Column Row Layer    Maximum-Flux-Residual          L2-NORM 
          0                 1           2             4    7     1       0.4390137266E-01       4    7    1         0.2311656727E+01      0.4787436237E+01
          0                 2           2             4    7     1      -0.4270447091E-02       4    7    1        -0.2311684302E+00      0.4787310866E+00
          0                 3           2             4    7     1       0.2908012176E-03       4    7    1         0.1618177100E-01      0.3350990089E-01
          0                 4           1             4    7     1      -0.1157125464E-04       4    7    1        -0.6618354803E-03      0.1370491973E-02

    ------------------------------------------------
       NWT REQUIRED            4 OUTER ITERATIONS 
       AND A TOTAL OF          7 INNER ITERATIONS.
    ------------------------------------------------

 NO OUTPUT CONTROL FOR STRESS PERIOD   36   TIME STEP   14
 
 SOLVING FOR HEAD 
                                                   Max.-Head-Change                         Max.-Flux-Residual
  Residual-Control   Outer-Iter.   Inner-Iter.     Column Row Layer    Maximum-Head-Change  Column Row Layer    Maximum-Flux-Residual          L2-NORM 
          0                 1           2             4    7     1       0.4332056932E-01       4    7    1         0.2281009839E+01      0.4730447329E+01
          0                 2           2             4    7     1      -0.4213949803E-02       4    7    1        -0.2281036761E+00      0.4730334541E+00
          0                 3           2             4    7     1       0.2869539713E-03       4    7    1         0.1596723875E-01      0.3311117314E-01
          0                 4           1             4    7     1      -0.1141816890E-04       4    7    1        -0.6530610942E-03      0.1354180154E-02

    ------------------------------------------------
       NWT REQUIRED            4 OUTER ITERATIONS 
       AND A TOTAL OF          7 INNER ITERATIONS.
    ------------------------------------------------

 NO OUTPUT CONTROL FOR STRESS PERIOD   36   TIME STEP   15
 
 SOLVING FOR HEAD 
                                                   Max.-Head-Change                         Max.-Flux-Residual
  Residual-Control   Outer-Iter.   Inner-Iter.     Column Row Layer    Maximum-Head-Change  Column Row Layer    Maximum-Flux-Residual          L2-NORM 
          0                 1           2             4    7     1       0.4274871443E-01       4    7    1         0.2250830629E+01      0.4674634518E+01
          0                 2           2             4    7     1      -0.4158322973E-02       4    7    1        -0.2250856908E+00      0.4674533018E+00
          0                 3           2             4    7     1       0.2831659998E-03       4    7    1         0.1575598031E-01      0.3272068946E-01
          0                 4           1             4    7     1      -0.1126744200E-04       4    7    1        -0.6444206128E-03      0.1338240744E-02

    ------------------------------------------------
       NWT REQUIRED            4 OUTER ITERATIONS 
       AND A TOTAL OF          7 INNER ITERATIONS.
    ------------------------------------------------

 NO OUTPUT CONTROL FOR STRESS PERIOD   36   TIME STEP   16
 
 SOLVING FOR HEAD 
                                                   Max.-Head-Change                         Max.-Flux-Residual
  Residual-Control   Outer-Iter.   Inner-Iter.     Column Row Layer    Maximum-Head-Change  Column Row Layer    Maximum-Flux-Residual          L2-NORM 
          0                 1           2             4    7     1       0.4218586285E-01       4    7    1         0.2221122645E+01      0.4619967986E+01
          0                 2           2             4    7     1      -0.4103571936E-02       4    7    1        -0.2221148294E+00      0.4619875847E+00
          0                 3           2             4    7     1       0.2794376663E-03       4    7    1         0.1554802052E-01      0.3233813737E-01
          0                 4           1             4    7     1      -0.1111908800E-04       4    7    1        -0.6359150379E-03      0.1322563180E-02

    ------------------------------------------------
       NWT REQUIRED            4 OUTER ITERATIONS 
       AND A TOTAL OF          7 INNER ITERATIONS.
    ------------------------------------------------

 NO OUTPUT CONTROL FOR STRESS PERIOD   36   TIME STEP   17
 
 SOLVING FOR HEAD 
                                                   Max.-Head-Change                         Max.-Flux-Residual
  Residual-Control   Outer-Iter.   Inner-Iter.     Column Row Layer    Maximum-Head-Change  Column Row Layer    Maximum-Flux-Residual          L2-NORM 
          0                 1           2             4    7     1       0.4163178694E-01       4    7    1         0.2191874183E+01      0.4566400194E+01
          0                 2           2             4    7     1      -0.4049674550E-02       4    7    1        -0.2191899214E+00      0.4566317236E+00
          0                 3           2             4    7     1       0.2757674628E-03       4    7    1         0.1534327745E-01      0.3196333881E-01
          0                 4           1             4    7     1      -0.1097304726E-04       4    7    1        -0.6275410351E-03      0.1307248056E-02

    ------------------------------------------------
       NWT REQUIRED            4 OUTER ITERATIONS 
       AND A TOTAL OF          7 INNER ITERATIONS.
    ------------------------------------------------

 NO OUTPUT CONTROL FOR STRESS PERIOD   36   TIME STEP   18
 
 SOLVING FOR HEAD 
                                                   Max.-Head-Change                         Max.-Flux-Residual
  Residual-Control   Outer-Iter.   Inner-Iter.     Column Row Layer    Maximum-Head-Change  Column Row Layer    Maximum-Flux-Residual          L2-NORM 
          0                 1           2             4    7     1       0.4108653116E-01       4    7    1         0.2163087991E+01      0.4513906940E+01
          0                 2           2             4    7     1      -0.3996635139E-02       4    7    1        -0.2163112417E+00      0.4513831726E+00
          0                 3           2             4    7     1       0.2721556841E-03       4    7    1         0.1514177034E-01      0.3159600567E-01
          0                 4           1             4    7     1      -0.1082933106E-04       4    7    1        -0.6192993719E-03      0.1292216770E-02

    ------------------------------------------------
       NWT REQUIRED            4 OUTER ITERATIONS 
       AND A TOTAL OF          7 INNER ITERATIONS.
    ------------------------------------------------

 NO OUTPUT CONTROL FOR STRESS PERIOD   36   TIME STEP   19
 
 SOLVING FOR HEAD 
                                                   Max.-Head-Change                         Max.-Flux-Residual
  Residual-Control   Outer-Iter.   Inner-Iter.     Column Row Layer    Maximum-Head-Change  Column Row Layer    Maximum-Flux-Residual          L2-NORM 
          0                 1           2             4    7     1       0.4054999454E-01       4    7    1         0.2134759101E+01      0.4462455445E+01
          0                 2           2             4    7     1      -0.3944443883E-02       4    7    1        -0.2134782932E+00      0.4462386818E+00
          0                 3           2             4    7     1       0.2686016619E-03       4    7    1         0.1494346444E-01      0.3123594100E-01
          0                 4           1             4    7     1      -0.1068791326E-04       4    7    1        -0.6111886526E-03      0.1277511408E-02

    ------------------------------------------------
       NWT REQUIRED            4 OUTER ITERATIONS 
       AND A TOTAL OF          7 INNER ITERATIONS.
    ------------------------------------------------

 NO OUTPUT CONTROL FOR STRESS PERIOD   36   TIME STEP   20
 
 SOLVING FOR HEAD 
                                                   Max.-Head-Change                         Max.-Flux-Residual
  Residual-Control   Outer-Iter.   Inner-Iter.     Column Row Layer    Maximum-Head-Change  Column Row Layer    Maximum-Flux-Residual          L2-NORM 
          0                 1           2             4    7     1       0.4002206816E-01       4    7    1         0.2106882275E+01      0.4412003978E+01
          0                 2           2             4    7     1      -0.3893090188E-02       4    7    1        -0.2106905525E+00      0.4411941297E+00
          0                 3           2             4    7     1       0.2651046738E-03       4    7    1         0.1474832305E-01      0.3088291242E-01
          0                 4           1             4    7     1      -0.1054876475E-04       4    7    1        -0.6032073507E-03      0.1263094872E-02

    ------------------------------------------------
       NWT REQUIRED            4 OUTER ITERATIONS 
       AND A TOTAL OF          7 INNER ITERATIONS.
    ------------------------------------------------

 NO OUTPUT CONTROL FOR STRESS PERIOD   36   TIME STEP   21
 
 SOLVING FOR HEAD 
                                                   Max.-Head-Change                         Max.-Flux-Residual
  Residual-Control   Outer-Iter.   Inner-Iter.     Column Row Layer    Maximum-Head-Change  Column Row Layer    Maximum-Flux-Residual          L2-NORM 
          0                 1           2             4    7     1       0.3950264540E-01       4    7    1         0.2079451869E+01      0.4362538612E+01
          0                 2           2             4    7     1      -0.3842563681E-02       4    7    1        -0.2079474550E+00      0.4362481114E+00
          0                 3           2             4    7     1       0.2616640139E-03       4    7    1         0.1455630667E-01      0.3053669188E-01
          0                 4           1             4    7     1      -0.1041185742E-04       4    7    1        -0.5953538628E-03      0.1248959430E-02

    ------------------------------------------------
       NWT REQUIRED            4 OUTER ITERATIONS 
       AND A TOTAL OF          7 INNER ITERATIONS.
    ------------------------------------------------

 NO OUTPUT CONTROL FOR STRESS PERIOD   36   TIME STEP   22
 
 SOLVING FOR HEAD 
                                                   Max.-Head-Change                         Max.-Flux-Residual
  Residual-Control   Outer-Iter.   Inner-Iter.     Column Row Layer    Maximum-Head-Change  Column Row Layer    Maximum-Flux-Residual          L2-NORM 
          0                 1           2             4    7     1       0.3899174653E-01       4    7    1         0.2052469631E+01      0.4314022342E+01
          0                 2           2             4    7     1      -0.3792866334E-02       4    7    1        -0.2052491757E+00      0.4313969958E+00
          0                 3           2             4    7     1       0.2582798170E-03       4    7    1         0.1436742756E-01      0.3019723601E-01
          0                 4           1             4    7     1      -0.1027719727E-04       4    7    1        -0.5876287062E-03      0.1235067424E-02

    ------------------------------------------------
       NWT REQUIRED            4 OUTER ITERATIONS 
       AND A TOTAL OF          7 INNER ITERATIONS.
    ------------------------------------------------

 NO OUTPUT CONTROL FOR STRESS PERIOD   36   TIME STEP   23
 
 SOLVING FOR HEAD 
                                                   Max.-Head-Change                         Max.-Flux-Residual
  Residual-Control   Outer-Iter.   Inner-Iter.     Column Row Layer    Maximum-Head-Change  Column Row Layer    Maximum-Flux-Residual          L2-NORM 
          0                 1           2             4    7     1       0.3848898375E-01       4    7    1         0.2025914779E+01      0.4266431685E+01
          0                 2           2             4    7     1      -0.3743960425E-02       4    7    1        -0.2025936360E+00      0.4266381436E+00
          0                 3           2             4    7     1       0.2549495137E-03       4    7    1         0.1418154022E-01      0.2986411082E-01
          0                 4           1             4    7     1      -0.1014468126E-04       4    7    1        -0.5800258984E-03      0.1221400659E-02

    ------------------------------------------------
       NWT REQUIRED            4 OUTER ITERATIONS 
       AND A TOTAL OF          7 INNER ITERATIONS.
    ------------------------------------------------

 NO OUTPUT CONTROL FOR STRESS PERIOD   36   TIME STEP   24
 
 SOLVING FOR HEAD 
                                                   Max.-Head-Change                         Max.-Flux-Residual
  Residual-Control   Outer-Iter.   Inner-Iter.     Column Row Layer    Maximum-Head-Change  Column Row Layer    Maximum-Flux-Residual          L2-NORM 
          0                 1           2             4    7     1       0.3799464925E-01       4    7    1         0.1999803600E+01      0.4219740438E+01
          0                 2           2             4    7     1      -0.3695874377E-02       4    7    1        -0.1999824650E+00      0.4219696006E+00
          0                 3           2             4    7     1       0.2516750399E-03       4    7    1         0.1399875869E-01      0.2953734913E-01
          0                 4           1             4    7     1      -0.1001438710E-04       4    7    1        -0.5725501219E-03      0.1208062407E-02

    ------------------------------------------------
       NWT REQUIRED            4 OUTER ITERATIONS 
       AND A TOTAL OF          7 INNER ITERATIONS.
    ------------------------------------------------

 NO OUTPUT CONTROL FOR STRESS PERIOD   36   TIME STEP   25
 
 SOLVING FOR HEAD 
                                                   Max.-Head-Change                         Max.-Flux-Residual
  Residual-Control   Outer-Iter.   Inner-Iter.     Column Row Layer    Maximum-Head-Change  Column Row Layer    Maximum-Flux-Residual          L2-NORM 
          0                 1           2             4    7     1       0.3750821214E-01       4    7    1         0.1974107568E+01      0.4173926687E+01
          0                 2           2             4    7     1      -0.3648556545E-02       4    7    1        -0.1974128098E+00      0.4173885400E+00
          0                 3           2             4    7     1       0.2484528784E-03       4    7    1         0.1381888323E-01      0.2921670636E-01
          0                 4           1             4    7     1      -0.9886174209E-05       4    7    1        -0.5651932022E-03      0.1194931815E-02

    ------------------------------------------------
       NWT REQUIRED            4 OUTER ITERATIONS 
       AND A TOTAL OF          7 INNER ITERATIONS.
    ------------------------------------------------

 NO OUTPUT CONTROL FOR STRESS PERIOD   36   TIME STEP   26
 
 SOLVING FOR HEAD 
                                                   Max.-Head-Change                         Max.-Flux-Residual
  Residual-Control   Outer-Iter.   Inner-Iter.     Column Row Layer    Maximum-Head-Change  Column Row Layer    Maximum-Flux-Residual          L2-NORM 
          0                 1           2             4    7     1       0.3702995617E-01       4    7    1         0.1948842836E+01      0.4128959764E+01
          0                 2           2             4    7     1      -0.3602034535E-02       4    7    1        -0.1948862859E+00      0.4128921719E+00
          0                 3           2             4    7     1       0.2452849094E-03       4    7    1         0.1364202696E-01      0.2890198530E-01
          0                 4           1             4    7     1      -0.9760117660E-05       4    7    1        -0.5579597698E-03      0.1182052835E-02

    ------------------------------------------------
       NWT REQUIRED            4 OUTER ITERATIONS 
       AND A TOTAL OF          7 INNER ITERATIONS.
    ------------------------------------------------

 NO OUTPUT CONTROL FOR STRESS PERIOD   36   TIME STEP   27
 
 SOLVING FOR HEAD 
                                                   Max.-Head-Change                         Max.-Flux-Residual
  Residual-Control   Outer-Iter.   Inner-Iter.     Column Row Layer    Maximum-Head-Change  Column Row Layer    Maximum-Flux-Residual          L2-NORM 
          0                 1           2             4    7     1       0.3655961831E-01       4    7    1         0.1923994997E+01      0.4084828479E+01
          0                 2           2             4    7     1      -0.3556282758E-02       4    7    1        -0.1924014525E+00      0.4084792912E+00
          0                 3           2             4    7     1       0.2421693898E-03       4    7    1         0.1346808901E-01      0.2859310381E-01
          0                 4           1             4    7     1      -0.9636148030E-05       4    7    1        -0.5508456884E-03      0.1169427783E-02

    ------------------------------------------------
       NWT REQUIRED            4 OUTER ITERATIONS 
       AND A TOTAL OF          7 INNER ITERATIONS.
    ------------------------------------------------

 NO OUTPUT CONTROL FOR STRESS PERIOD   36   TIME STEP   28
 
 SOLVING FOR HEAD 
                                                   Max.-Head-Change                         Max.-Flux-Residual
  Residual-Control   Outer-Iter.   Inner-Iter.     Column Row Layer    Maximum-Head-Change  Column Row Layer    Maximum-Flux-Residual          L2-NORM 
          0                 1           2             4    7     1       0.3609693622E-01       4    7    1         0.1899550411E+01      0.4041499625E+01
          0                 2           2             4    7     1      -0.3511275696E-02       4    7    1        -0.1899569456E+00      0.4041466699E+00
          0                 3           2             4    7     1       0.2391045829E-03       4    7    1         0.1329697392E-01      0.2828985728E-01
          0                 4           1             4    7     1      -0.9514196587E-05       4    7    1        -0.5438470732E-03      0.1157021800E-02

    ------------------------------------------------
       NWT REQUIRED            4 OUTER ITERATIONS 
       AND A TOTAL OF          7 INNER ITERATIONS.
    ------------------------------------------------

 NO OUTPUT CONTROL FOR STRESS PERIOD   36   TIME STEP   29
 
 SOLVING FOR HEAD 
                                                   Max.-Head-Change                         Max.-Flux-Residual
  Residual-Control   Outer-Iter.   Inner-Iter.     Column Row Layer    Maximum-Head-Change  Column Row Layer    Maximum-Flux-Residual          L2-NORM 
          0                 1           2             4    7     1       0.3564205351E-01       4    7    1         0.1875517322E+01      0.3998954221E+01
          0                 2           2             4    7     1      -0.3467027305E-02       4    7    1        -0.1875535895E+00      0.3998827406E+00
          0                 3           2             4    7     1       0.2360914385E-03       4    7    1         0.1312873937E-01      0.2799141910E-01
          0                 4           1             4    7     1      -0.9394300746E-05       4    7    1        -0.5369662774E-03      0.1144826737E-02

    ------------------------------------------------
       NWT REQUIRED            4 OUTER ITERATIONS 
       AND A TOTAL OF          7 INNER ITERATIONS.
    ------------------------------------------------

 NO OUTPUT CONTROL FOR STRESS PERIOD   36   TIME STEP   30



 STREAM LISTING     PERIOD     36   STEP       30

 LAYER ROW COL. STREAM  RCH.  FLOW INTO     FLOW TO   FLOW OUT OF   OVRLND.     DIRECT     STREAM       STREAM     STREAM     STREAM   STREAMBED  STREAMBED
                SEG.NO.  NO.  STRM. RCH.    AQUIFER    STRM. RCH.    RUNOFF     PRECIP       ET          HEAD       DEPTH      WIDTH   CONDCTNC.   GRADIENT

   1    1    1     1     1    1.9499E+01  2.1750E-01   1.9282E+01  0.000E+00  0.000E+00  0.000E+00  1.09414E+03  1.090E+00  1.182E+01  5.318E-02  1.363E+00
   1    2    2     1     2    1.9282E+01  3.3555E-01   1.8946E+01  0.000E+00  0.000E+00  0.000E+00  1.08914E+03  1.086E+00  1.173E+01  8.213E-02  1.362E+00
   1    3    3     1     3    1.8946E+01  2.8492E-01   1.8661E+01  0.000E+00  0.000E+00  0.000E+00  1.08350E+03  1.081E+00  1.164E+01  6.982E-02  1.360E+00
   1    3    4     1     4    1.8661E+01  2.6135E-01   1.8400E+01  0.000E+00  0.000E+00  0.000E+00  1.07848E+03  1.076E+00  1.155E+01  6.412E-02  1.359E+00
   1    4    5     2     1    1.6400E+01  3.0673E-01   1.6093E+01  0.000E+00  0.000E+00  0.000E+00  1.07287E+03  9.324E-01  1.200E+01  7.800E-02  1.311E+00
   1    5    6     2     2    1.6093E+01  2.3538E-01   1.5858E+01  0.000E+00  0.000E+00  0.000E+00  1.06743E+03  9.230E-01  1.200E+01  6.000E-02  1.308E+00
   1    6    6     2     3    1.5858E+01  2.3489E-01   1.5623E+01  0.000E+00  0.000E+00  0.000E+00  1.06271E+03  9.149E-01  1.200E+01  6.000E-02  1.305E+00
   1    7    6     2     4    1.5623E+01  2.3440E-01   1.5389E+01  0.000E+00  0.000E+00  0.000E+00  1.05798E+03  9.067E-01  1.200E+01  6.000E-02  1.302E+00
   1    8    6     2     5    1.5389E+01  2.3390E-01   1.5155E+01  0.000E+00  0.000E+00  0.000E+00  1.05326E+03  8.984E-01  1.200E+01  6.000E-02  1.299E+00
   1    3    5     3     1    2.0000E+00  2.8252E-01   1.7175E+00  0.000E+00  0.000E+00  0.000E+00  1.07555E+03  1.909E+00  9.636E+00  7.227E-02  1.955E+00
   1    3    6     3     2    1.7175E+00  2.4905E-01   1.4684E+00  0.000E+00  0.000E+00  0.000E+00  1.07264E+03  1.727E+00  8.909E+00  6.682E-02  1.864E+00
   1    3    7     3     3    1.4684E+00  1.9718E-01   1.2712E+00  0.000E+00  0.000E+00  0.000E+00  1.06987E+03  1.555E+00  8.218E+00  5.547E-02  1.777E+00
   1    4    8     3     4    1.2712E+00  2.2567E-01   1.0456E+00  0.000E+00  0.000E+00  0.000E+00  1.06682E+03  1.364E+00  7.455E+00  6.709E-02  1.682E+00
   1    5    8     3     5    1.0456E+00  1.5790E-01   8.8768E-01  0.000E+00  0.000E+00  0.000E+00  1.06362E+03  1.164E+00  6.655E+00  4.991E-02  1.582E+00
   1    6    8     3     6    8.8768E-01  5.5980E-02   8.3170E-01  0.000E+00  0.000E+00  0.000E+00  1.06158E+03  1.036E+00  6.145E+00  1.844E-02  1.518E+00
   1    5   10     4     1    1.0000E+01  9.0919E-02   9.9091E+00  0.000E+00  0.000E+00  0.000E+00  1.07836E+03  6.368E-01  1.000E+01  2.500E-02  1.212E+00
   1    5    9     4     2    9.9091E+00  1.8158E-01   9.7275E+00  0.000E+00  0.000E+00  0.000E+00  1.07154E+03  6.315E-01  1.000E+01  5.000E-02  1.211E+00
   1    6    8     4     3    9.7275E+00  1.2689E-01   9.6006E+00  0.000E+00  0.000E+00  0.000E+00  1.06381E+03  6.256E-01  1.000E+01  3.500E-02  1.209E+00
   1    6    8     5     1    1.0432E+01  2.2686E-01   1.0205E+01  0.000E+00  0.000E+00  0.000E+00  1.05868E+03  6.790E-01  1.542E+01  6.166E-02  1.226E+00
   1    7    7     5     2    1.0205E+01  2.7894E-01   9.9265E+00  0.000E+00  0.000E+00  0.000E+00  1.05417E+03  6.732E-01  1.519E+01  7.594E-02  1.224E+00
   1    8    7     5     3    9.9265E+00  1.9221E-01   9.7343E+00  0.000E+00  0.000E+00  0.000E+00  1.04992E+03  6.676E-01  1.497E+01  5.241E-02  1.223E+00
   1    8    6     5     4    9.7343E+00  1.3577E-01   9.5985E+00  0.000E+00  0.000E+00  0.000E+00  1.04691E+03  6.637E-01  1.482E+01  3.706E-02  1.221E+00
   1    9    6     6     1    2.4753E+01  2.5261E-01   2.4501E+01  0.000E+00  0.000E+00  0.000E+00  1.04394E+03  1.210E+00  1.200E+01  6.000E-02  1.403E+00
   1   10    7     6     2    2.4501E+01  2.5216E-01   2.4249E+01  0.000E+00  0.000E+00  0.000E+00  1.03938E+03  1.203E+00  1.200E+01  6.000E-02  1.401E+00
   1   11    7     6     3    2.4249E+01  2.5171E-01   2.3997E+01  0.000E+00  0.000E+00  0.000E+00  1.03483E+03  1.195E+00  1.200E+01  6.000E-02  1.398E+00
   1   12    7     6     4    2.3997E+01  2.5126E-01   2.3746E+01  0.000E+00  0.000E+00  0.000E+00  1.03028E+03  1.188E+00  1.200E+01  6.000E-02  1.396E+00
   1   13    7     6     5    2.3746E+01  7.9847E-03   2.3738E+01  0.000E+00  0.000E+00  0.000E+00  1.02709E+03  1.184E+00  1.200E+01  2.400E-02  1.109E-01
   1   14    9     7     1    1.5000E+02  1.3610E+00   1.4864E+02  0.000E+00  0.000E+00  0.000E+00  1.03987E+03  2.288E+00  5.529E+01  5.593E-01  8.111E-01
   1   13    8     7     2    1.4864E+02  1.9291E+00   1.4671E+02  0.000E+00  0.000E+00  0.000E+00  1.03478E+03  2.279E+00  5.526E+01  6.148E-01  1.046E+00
   1   13    7     7     3    1.4671E+02  1.6353E+00   1.4507E+02  0.000E+00  0.000E+00  0.000E+00  1.02969E+03  2.269E+00  5.521E+01  5.584E-01  9.762E-01
   1   13    6     8     1    1.6881E+02  1.0749E+00   1.6774E+02  0.000E+00  0.000E+00  0.000E+00  1.02482E+03  2.941E+00  4.264E+01  4.346E-01  8.245E-01
   1   13    5     8     2    1.6774E+02  3.2144E-01   1.6742E+02  0.000E+00  0.000E+00  0.000E+00  1.01856E+03  2.936E+00  4.258E+01  4.339E-01  2.470E-01
   1   13    4     8     3    1.6742E+02 -1.9351E+00   1.6935E+02  0.000E+00  0.000E+00  0.000E+00  1.01232E+03  2.942E+00  4.265E+01  4.347E+00 -1.484E-01
   1   13    3     8     4    1.6935E+02 -3.4254E+00   1.7278E+02  0.000E+00  0.000E+00  0.000E+00  1.00608E+03  2.959E+00  4.291E+01  4.372E+00 -2.611E-01
   1   13    2     8     5    1.7278E+02 -2.5416E+00   1.7532E+02  0.000E+00  0.000E+00  0.000E+00  9.99853E+02  2.978E+00  4.319E+01  4.401E+00 -1.925E-01
   1   13    1     8     6    1.7532E+02 -1.9965E+00   1.7731E+02  0.000E+00  0.000E+00  0.000E+00  9.94868E+02  2.993E+00  4.340E+01  2.653E+00 -2.508E-01
   1    8    6     9     1    0.0000E+00  0.0000E+00   0.0000E+00  0.000E+00  0.000E+00  0.000E+00  1.07875E+03  0.000E+00  4.000E+00  0.000E+00  1.000E+00
   1    8    5     9     2    0.0000E+00  0.0000E+00   0.0000E+00  0.000E+00  0.000E+00  0.000E+00  1.07825E+03  0.000E+00  4.000E+00  0.000E+00  1.000E+00





UNSATURATED ZONE PACKAGE VOLUMETRIC BUDGET FOR  TIME STEP    30 STRESS PERIOD   36
  ------------------------------------------------------------------------------



     CUMULATIVE VOLUMES      L**3       RATES FOR THIS TIME STEP      L**3/T
     ------------------                 ------------------------

           IN:                                      IN:
           ---                                      ---
        INFILTRATION =  1281863395.5767          INFILTRATION =           0.8475

          OUT:                                     OUT:
          ----                                     ----
              UZF ET =  1280800051.4669                UZF ET =           0.7500
        UZF RECHARGE =       73224.0000          UZF RECHARGE =       0.0000E+00

            IN - OUT =      990120.1098              IN - OUT =       9.7500E-02

          STORAGE:                                 STORAGE:
          --------                                 --------
      STORAGE CHANGE =      990120.1701        STORAGE CHANGE =       9.7500E-02

 PERCENT DISCREPANCY IS DIFFERENCE BETWEEN IN-OUT MINUS CHANGE IN STORAGE
 DIVIDED BY THE AVERAGE OF IN AND OUT TIMES 100

 PERCENT DISCREPANCY =           0.00     PERCENT DISCREPANCY =           0.00






1
  VOLUMETRIC BUDGET FOR AGRICULTURAL FIELDS AT  END OF TIME STEP   30, STRESS PERIOD  36
  ------------------------------------------------------------------------------

     CUMULATIVE VOLUMES      L**3       RATES FOR THIS TIME STEP      L**3/T
     ------------------                 ------------------------

           IN:                                      IN:
           ---                                      ---
               AG WELLS  =  1203775104.0000                 AG WELLS  =           0.0000
      DIVERSION SEGMENTS =           0.0000        DIVERSION SEGMENTS =           0.0000
       IRRIGATION PONDS  =           0.0000         IRRIGATION PONDS  =           0.0000
           GW IRRIGATION =           0.0000             GW IRRIGATION =           0.0000
           SW IRRIGATION =           0.0000             SW IRRIGATION =           0.0000
        SYSTEM LOSSES GW =           0.0000          SYSTEM LOSSES GW =           0.0000
        SYSTEM LOSSES SW =           0.0000          SYSTEM LOSSES SW =           0.0000

                TOTAL IN =  1203775104.0000                  TOTAL IN =           0.0000

          OUT:                                     OUT:
          ----                                     ----
               AG WELLS  =           0.0000                 AG WELLS  =           0.0000
      DIVERSION SEGMENTS =           0.0000        DIVERSION SEGMENTS =           0.0000
       IRRIGATION PONDS  =           0.0000         IRRIGATION PONDS  =           0.0000
           GW IRRIGATION =  1203775104.0000             GW IRRIGATION =           0.0000
           SW IRRIGATION =           0.0000             SW IRRIGATION =           0.0000
        SYSTEM LOSSES GW =           0.0000          SYSTEM LOSSES GW =           0.0000
        SYSTEM LOSSES SW =           0.0000          SYSTEM LOSSES SW =           0.0000

               TOTAL OUT =  1203775104.0000                 TOTAL OUT =           0.0000

                IN - OUT =           0.0000                  IN - OUT =           0.0000

     PERCENT DISCREPANCY =           0.00         PERCENT DISCREPANCY =           0.00



1
  VOLUMETRIC BUDGET FOR ENTIRE MODEL AT END OF TIME STEP   30, STRESS PERIOD  36
  ------------------------------------------------------------------------------

     CUMULATIVE VOLUMES      L**3       RATES FOR THIS TIME STEP      L**3/T
     ------------------                 ------------------------

           IN:                                      IN:
           ---                                      ---
             STORAGE     =  1620861184.0000               STORAGE     =           9.9530
       CONSTANT HEAD     =           0.0000         CONSTANT HEAD     =           0.0000
     HEAD DEP BOUNDS     =    26363480.0000       HEAD DEP BOUNDS     =           0.2875
      STREAM LEAKAGE     =  1133805184.0000        STREAM LEAKAGE     =          12.0835
        UZF RECHARGE     =       73223.9531          UZF RECHARGE     =           0.0000
               GW ET     =           0.0000                 GW ET     =           0.0000
     SURFACE LEAKAGE     =           0.0000       SURFACE LEAKAGE     =           0.0000
           AG WELLS      =           0.0000             AG WELLS      =           0.0000

                TOTAL IN =  2781103104.0000                  TOTAL IN =          22.3240

          OUT:                                     OUT:
          ----                                     ----
             STORAGE     =   595873408.0000               STORAGE     =          12.1358
       CONSTANT HEAD     =           0.0000         CONSTANT HEAD     =           0.0000
     HEAD DEP BOUNDS     =    26931796.0000       HEAD DEP BOUNDS     =           0.2896
      STREAM LEAKAGE     =   946154560.0000        STREAM LEAKAGE     =           9.8986
        UZF RECHARGE     =           0.0000          UZF RECHARGE     =           0.0000
               GW ET     =     8372419.5000                 GW ET     =           0.0000
     SURFACE LEAKAGE     =           0.0000       SURFACE LEAKAGE     =           0.0000
           AG WELLS      =  1203775104.0000             AG WELLS      =           0.0000

               TOTAL OUT =  2781107200.0000                 TOTAL OUT =          22.3240

                IN - OUT =       -4096.0000                  IN - OUT =       1.3351E-05

     PERCENT DISCREPANCY =          -0.00         PERCENT DISCREPANCY =           0.00






         TIME SUMMARY AT END OF TIME STEP   30 IN STRESS PERIOD   36
                    SECONDS     MINUTES      HOURS       DAYS        YEARS
                    -----------------------------------------------------------
   TIME STEP LENGTH  87667.      1461.1      24.352      1.0147     2.77799E-03
 STRESS PERIOD TIME 2.63000E+06  43833.      730.56      30.440     8.33397E-02
         TOTAL TIME 9.21360E+07 1.53560E+06  25593.      1066.4      2.9196    
1
1
                            STRESS PERIOD NO.   37, LENGTH =   2630000.    
                            -----------------------------------------------

                              NUMBER OF TIME STEPS =    30

                               MULTIPLIER FOR DELT =     1.000

                            INITIAL TIME STEP SIZE =   87666.66    

 REUSING NON-PARAMETER GHB CELLS FROM LAST STRESS PERIOD

      2 GHB CELLS

 REUSING STREAM SEGMENT DATA FROM LAST STRESS PERIOD



            AREAL INFILTRATION RATE
 READING ON UNIT   19 WITH FORMAT: (FREE)              

            1           2           3           4           5           6           7           8           9          10
 ........................................................................................................................
   1   1.0000E-10  2.0000E-10   0.000       0.000       0.000       0.000       0.000       0.000       0.000       0.000    
   2   2.0000E-10  1.0000E-10  2.0000E-10   0.000       0.000      8.0000E-10  8.0000E-10  5.0000E-10   0.000       0.000    
   3    0.000      5.0000E-10  1.0000E-10  1.0000E-10  8.0000E-10  8.0000E-10  5.0000E-10  5.0000E-10   0.000       0.000    
   4   8.0000E-10  5.0000E-10  1.0000E-10  1.0000E-10  1.0000E-10  1.0000E-10  1.0000E-10  1.0000E-10  2.0000E-10   0.000    
   5   8.0000E-10  5.0000E-10  1.0000E-10  1.0000E-10  1.0000E-10  1.0000E-10  1.0000E-10  1.0000E-10  1.0000E-10  1.0000E-10
   6   8.0000E-10  5.0000E-10  5.0000E-10  2.0000E-10  2.0000E-10  1.0000E-10  1.0000E-10  1.0000E-10  1.0000E-10  5.0000E-10
   7   8.0000E-10  5.0000E-10  5.0000E-10  2.0000E-10  2.0000E-10  1.0000E-10  1.0000E-10  2.0000E-10  2.0000E-10   0.000    
   8    0.000      5.0000E-10  5.0000E-10  2.0000E-10  2.0000E-10  1.0000E-10  1.0000E-10  2.0000E-10  5.0000E-10   0.000    
   9    0.000      5.0000E-10  5.0000E-10  2.0000E-10  2.0000E-10  1.0000E-10  1.0000E-10  2.0000E-10  5.0000E-10   0.000    
  10    0.000      5.0000E-10  5.0000E-10  2.0000E-10  2.0000E-10  1.0000E-10  1.0000E-10  2.0000E-10  5.0000E-10  8.0000E-10
  11    0.000      1.0000E-10  1.0000E-10  1.0000E-10  1.0000E-10  1.0000E-10  1.0000E-10  2.0000E-10  5.0000E-10   0.000    
  12   1.0000E-10  1.0000E-10  1.0000E-10  1.0000E-10  1.0000E-10  1.0000E-10  1.0000E-10  1.0000E-10  2.0000E-10   0.000    
  13   1.0000E-10  1.0000E-10  2.0000E-10  2.0000E-10  2.0000E-10  2.0000E-10  2.0000E-10  1.0000E-10  1.0000E-10   0.000    
  14    0.000      2.0000E-10  5.0000E-10  5.0000E-10  5.0000E-10  5.0000E-10  5.0000E-10  2.0000E-10  1.0000E-10   0.000    
  15    0.000       0.000      8.0000E-10  8.0000E-10  8.0000E-10  8.0000E-10   0.000       0.000       0.000       0.000    

                  ET RATE =  5.000000E-10

 USING ET EXTINCTION DEPTH FROM PREVIOUS STRESS PERIOD. CURRENT PERIOD IS:      37

 USING EXTINCTION WATER CONTENT FROM PREVIOUS STRESS PERIOD. CURRENT PERIOD IS:      37

 USING AIR ENTRY PRESSURE FROM PREVIOUS STRESS PERIOD. CURRENT PERIOD IS:      37

 USING ROOT PRESSURE HEAD FROM PREVIOUS STRESS PERIOD. CURRENT PERIOD IS:      37

 USING ROOT ACTIVITY FROM PREVIOUS STRESS PERIOD. CURRENT PERIOD IS:      37

 PROCESSING AG STRESS PERIOD DATA

 READING AG STRESS PERIOD DATA

 READING IRRIGATION SEGMENT

 READING IRRIGATION WELL

 READING SUPPLEMENTAL WELL

 NO IRRPOND OR REUSING IRRPOND DATA FROM LAST STRESS PERIOD

 END PROCESSING AG STRESS PERIOD DATA OPTIONS
 
 SOLVING FOR HEAD 
                                                   Max.-Head-Change                         Max.-Flux-Residual
  Residual-Control   Outer-Iter.   Inner-Iter.     Column Row Layer    Maximum-Head-Change  Column Row Layer    Maximum-Flux-Residual          L2-NORM 
          0                 1           2             4    7     1       0.3519470038E-01       4    7    1         0.1851881332E+01      0.3958591403E+01
          0                 2           2             4    7     1      -0.3423510639E-02       4    7    1        -0.1851899445E+00      0.3958133045E+00
          0                 3           2             4    7     1       0.2331281211E-03       4    7    1         0.1296328457E-01      0.2770630351E-01
          0                 4           1             4    7     1      -0.9276387519E-05       4    7    1        -0.5301991623E-03      0.1133151489E-02

    ------------------------------------------------
       NWT REQUIRED            4 OUTER ITERATIONS 
       AND A TOTAL OF          7 INNER ITERATIONS.
    ------------------------------------------------

 NO OUTPUT CONTROL FOR STRESS PERIOD   37   TIME STEP    1
 
 SOLVING FOR HEAD 
                                                   Max.-Head-Change                         Max.-Flux-Residual
  Residual-Control   Outer-Iter.   Inner-Iter.     Column Row Layer    Maximum-Head-Change  Column Row Layer    Maximum-Flux-Residual          L2-NORM 
          0                 1           2             4    7     1       0.3475473471E-01       4    7    1         0.1828635771E+01      0.3922146947E+01
          0                 2           2             4    7     1      -0.3380714058E-02       4    7    1        -0.1828653436E+00      0.3921988825E+00
          0                 3           2             4    7     1       0.2302138392E-03       4    7    1         0.1280056287E-01      0.2745243638E-01
          0                 4           1             4    7     1      -0.9160425243E-05       4    7    1        -0.5235438289E-03      0.1122701569E-02

    ------------------------------------------------
       NWT REQUIRED            4 OUTER ITERATIONS 
       AND A TOTAL OF          7 INNER ITERATIONS.
    ------------------------------------------------

 NO OUTPUT CONTROL FOR STRESS PERIOD   37   TIME STEP    2
 
 SOLVING FOR HEAD 
                                                   Max.-Head-Change                         Max.-Flux-Residual
  Residual-Control   Outer-Iter.   Inner-Iter.     Column Row Layer    Maximum-Head-Change  Column Row Layer    Maximum-Flux-Residual          L2-NORM 
          0                 1           2             4    7     1       0.3432216625E-01       4    7    1         0.1805780438E+01      0.3881665815E+01
          0                 2           2             4    7     1      -0.3338636299E-02       4    7    1        -0.1805797666E+00      0.3881523561E+00
          0                 3           2             4    7     1       0.2273485060E-03       4    7    1         0.1264057281E-01      0.2716929456E-01
          0                 4           1             4    7     1      -0.9046410927E-05       4    7    1        -0.5170002216E-03      0.1111133720E-02

    ------------------------------------------------
       NWT REQUIRED            4 OUTER ITERATIONS 
       AND A TOTAL OF          7 INNER ITERATIONS.
    ------------------------------------------------

 NO OUTPUT CONTROL FOR STRESS PERIOD   37   TIME STEP    3
 
 SOLVING FOR HEAD 
                                                   Max.-Head-Change                         Max.-Flux-Residual
  Residual-Control   Outer-Iter.   Inner-Iter.     Column Row Layer    Maximum-Head-Change  Column Row Layer    Maximum-Flux-Residual          L2-NORM 
          0                 1           2             4    7     1       0.3389673144E-01       4    7    1         0.1783301390E+01      0.3841919921E+01
          0                 2           2             4    7     1      -0.3297252465E-02       4    7    1        -0.1783318191E+00      0.3841792190E+00
          0                 3           2             4    7     1       0.2245304268E-03       4    7    1         0.1248321684E-01      0.2689130702E-01
          0                 4           1             4    7     1      -0.8934277220E-05       4    7    1        -0.5105643629E-03      0.1099739556E-02

    ------------------------------------------------
       NWT REQUIRED            4 OUTER ITERATIONS 
       AND A TOTAL OF          7 INNER ITERATIONS.
    ------------------------------------------------

 NO OUTPUT CONTROL FOR STRESS PERIOD   37   TIME STEP    4
 
 SOLVING FOR HEAD 
                                                   Max.-Head-Change                         Max.-Flux-Residual
  Residual-Control   Outer-Iter.   Inner-Iter.     Column Row Layer    Maximum-Head-Change  Column Row Layer    Maximum-Flux-Residual          L2-NORM 
          0                 1           2             4    7     1       0.3347843943E-01       4    7    1         0.1761199489E+01      0.3802889537E+01
          0                 2           2             4    7     1      -0.3256563448E-02       4    7    1        -0.1761215874E+00      0.3802772986E+00
          0                 3           2             4    7     1       0.2217596613E-03       4    7    1         0.1232850094E-01      0.2661829119E-01
          0                 4           1             4    7     1      -0.8824025618E-05       4    7    1        -0.5042364628E-03      0.1088647725E-02

    ------------------------------------------------
       NWT REQUIRED            4 OUTER ITERATIONS 
       AND A TOTAL OF          7 INNER ITERATIONS.
    ------------------------------------------------

 NO OUTPUT CONTROL FOR STRESS PERIOD   37   TIME STEP    5
 
 SOLVING FOR HEAD 
                                                   Max.-Head-Change                         Max.-Flux-Residual
  Residual-Control   Outer-Iter.   Inner-Iter.     Column Row Layer    Maximum-Head-Change  Column Row Layer    Maximum-Flux-Residual          L2-NORM 
          0                 1           2             4    7     1       0.3306702882E-01       4    7    1         0.1739460641E+01      0.3764558867E+01
          0                 2           2             4    7     1      -0.3216543817E-02       4    7    1        -0.1739476621E+00      0.3764453547E+00
          0                 3           2             4    7     1       0.2190344786E-03       4    7    1         0.1217632649E-01      0.2635010480E-01
          0                 4           1             4    7     1      -0.8715587853E-05       4    7    1        -0.4980125045E-03      0.1077640799E-02

    ------------------------------------------------
       NWT REQUIRED            4 OUTER ITERATIONS 
       AND A TOTAL OF          7 INNER ITERATIONS.
    ------------------------------------------------

 NO OUTPUT CONTROL FOR STRESS PERIOD   37   TIME STEP    6
 
 SOLVING FOR HEAD 
                                                   Max.-Head-Change                         Max.-Flux-Residual
  Residual-Control   Outer-Iter.   Inner-Iter.     Column Row Layer    Maximum-Head-Change  Column Row Layer    Maximum-Flux-Residual          L2-NORM 
          0                 1           2             4    7     1       0.3266264134E-01       4    7    1         0.1718093150E+01      0.3726899988E+01
          0                 2           2             4    7     1      -0.3177207361E-02       4    7    1        -0.1718108735E+00      0.3726804441E+00
          0                 3           2             4    7     1       0.2163558172E-03       4    7    1         0.1202675158E-01      0.2608665425E-01
          0                 4           1             4    7     1      -0.8609001339E-05       4    7    1        -0.4918948857E-03      0.1066859387E-02

    ------------------------------------------------
       NWT REQUIRED            4 OUTER ITERATIONS 
       AND A TOTAL OF          7 INNER ITERATIONS.
    ------------------------------------------------

 NO OUTPUT CONTROL FOR STRESS PERIOD   37   TIME STEP    7
 
 SOLVING FOR HEAD 
                                                   Max.-Head-Change                         Max.-Flux-Residual
  Residual-Control   Outer-Iter.   Inner-Iter.     Column Row Layer    Maximum-Head-Change  Column Row Layer    Maximum-Flux-Residual          L2-NORM 
          0                 1           2             4    7     1       0.3226487735E-01       4    7    1         0.1697075221E+01      0.3689899294E+01
          0                 2           2             4    7     1      -0.3138515204E-02       4    7    1        -0.1697090421E+00      0.3689811200E+00
          0                 3           2             4    7     1       0.2137210307E-03       4    7    1         0.1187962370E-01      0.2582781780E-01
          0                 4           1             4    7     1      -0.8504161080E-05       4    7    1        -0.4858773571E-03      0.1056321375E-02

    ------------------------------------------------
       NWT REQUIRED            4 OUTER ITERATIONS 
       AND A TOTAL OF          7 INNER ITERATIONS.
    ------------------------------------------------

 NO OUTPUT CONTROL FOR STRESS PERIOD   37   TIME STEP    8
 
 SOLVING FOR HEAD 
                                                   Max.-Head-Change                         Max.-Flux-Residual
  Residual-Control   Outer-Iter.   Inner-Iter.     Column Row Layer    Maximum-Head-Change  Column Row Layer    Maximum-Flux-Residual          L2-NORM 
          0                 1           2             4    7     1       0.3187388509E-01       4    7    1         0.1676415278E+01      0.3653544957E+01
          0                 2           2             4    7     1      -0.3100481768E-02       4    7    1        -0.1676430103E+00      0.3653464778E+00
          0                 3           2             4    7     1       0.2111310998E-03       4    7    1         0.1173500175E-01      0.2557341791E-01
          0                 4           1             4    7     1      -0.8401105069E-05       4    7    1        -0.4799623080E-03      0.1045890013E-02

    ------------------------------------------------
       NWT REQUIRED            4 OUTER ITERATIONS 
       AND A TOTAL OF          7 INNER ITERATIONS.
    ------------------------------------------------

 NO OUTPUT CONTROL FOR STRESS PERIOD   37   TIME STEP    9
 
 SOLVING FOR HEAD 
                                                   Max.-Head-Change                         Max.-Flux-Residual
  Residual-Control   Outer-Iter.   Inner-Iter.     Column Row Layer    Maximum-Head-Change  Column Row Layer    Maximum-Flux-Residual          L2-NORM 
          0                 1           2             4    7     1       0.3148939754E-01       4    7    1         0.1656099148E+01      0.3617806870E+01
          0                 2           2             4    7     1      -0.3063081076E-02       4    7    1        -0.1656113608E+00      0.3617733714E+00
          0                 3           2             4    7     1       0.2085842567E-03       4    7    1         0.1159278658E-01      0.2532337404E-01
          0                 4           1             4    7     1      -0.8299763654E-05       4    7    1        -0.4741456933E-03      0.1035684926E-02

    ------------------------------------------------
       NWT REQUIRED            4 OUTER ITERATIONS 
       AND A TOTAL OF          7 INNER ITERATIONS.
    ------------------------------------------------

 NO OUTPUT CONTROL FOR STRESS PERIOD   37   TIME STEP   10
 
 SOLVING FOR HEAD 
                                                   Max.-Head-Change                         Max.-Flux-Residual
  Residual-Control   Outer-Iter.   Inner-Iter.     Column Row Layer    Maximum-Head-Change  Column Row Layer    Maximum-Flux-Residual          L2-NORM 
          0                 1           2             4    7     1       0.3111129295E-01       4    7    1         0.1636120274E+01      0.3582680753E+01
          0                 2           2             4    7     1      -0.3026301286E-02       4    7    1        -0.1636134378E+00      0.3582613482E+00
          0                 3           2             4    7     1       0.2060796949E-03       4    7    1         0.1145293226E-01      0.2507761559E-01
          0                 4           1             4    7     1      -0.8200105173E-05       4    7    1        -0.4684256512E-03      0.1025613999E-02

    ------------------------------------------------
       NWT REQUIRED            4 OUTER ITERATIONS 
       AND A TOTAL OF          7 INNER ITERATIONS.
    ------------------------------------------------

 NO OUTPUT CONTROL FOR STRESS PERIOD   37   TIME STEP   11
 
 SOLVING FOR HEAD 
                                                   Max.-Head-Change                         Max.-Flux-Residual
  Residual-Control   Outer-Iter.   Inner-Iter.     Column Row Layer    Maximum-Head-Change  Column Row Layer    Maximum-Flux-Residual          L2-NORM 
          0                 1           2             4    7     1       0.3073944948E-01       4    7    1         0.1616472341E+01      0.3548145512E+01
          0                 2           2             4    7     1      -0.2990130546E-02       4    7    1        -0.1616486099E+00      0.3548083869E+00
          0                 3           2             4    7     1       0.2036166060E-03       4    7    1         0.1131539456E-01      0.2483596425E-01
          0                 4           1             4    7     1      -0.8102096126E-05       4    7    1        -0.4628003371E-03      0.1015764154E-02

    ------------------------------------------------
       NWT REQUIRED            4 OUTER ITERATIONS 
       AND A TOTAL OF          7 INNER ITERATIONS.
    ------------------------------------------------

 NO OUTPUT CONTROL FOR STRESS PERIOD   37   TIME STEP   12
 
 SOLVING FOR HEAD 
                                                   Max.-Head-Change                         Max.-Flux-Residual
  Residual-Control   Outer-Iter.   Inner-Iter.     Column Row Layer    Maximum-Head-Change  Column Row Layer    Maximum-Flux-Residual          L2-NORM 
          0                 1           2             4    7     1       0.3037388062E-01       4    7    1         0.1597156324E+01      0.3514190040E+01
          0                 2           2             4    7     1      -0.2954570166E-02       4    7    1        -0.1597169744E+00      0.3514132749E+00
          0                 3           2             4    7     1       0.2011950808E-03       4    7    1         0.1118018032E-01      0.2459830285E-01
          0                 4           1             4    7     1      -0.8005741578E-05       4    7    1        -0.4572700691E-03      0.1006048746E-02

    ------------------------------------------------
       NWT REQUIRED            4 OUTER ITERATIONS 
       AND A TOTAL OF          7 INNER ITERATIONS.
    ------------------------------------------------

 NO OUTPUT CONTROL FOR STRESS PERIOD   37   TIME STEP   13
 
 SOLVING FOR HEAD 
                                                   Max.-Head-Change                         Max.-Flux-Residual
  Residual-Control   Outer-Iter.   Inner-Iter.     Column Row Layer    Maximum-Head-Change  Column Row Layer    Maximum-Flux-Residual          L2-NORM 
          0                 1           2             4    7     1       0.3001432909E-01       4    7    1         0.1578158342E+01      0.3480796604E+01
          0                 2           2             4    7     1      -0.2919595124E-02       4    7    1        -0.1578171434E+00      0.3480743502E+00
          0                 3           2             4    7     1       0.1988134152E-03       4    7    1         0.1104719243E-01      0.2436463819E-01
          0                 4           1             4    7     1      -0.7910972566E-05       4    7    1        -0.4518308569E-03      0.9964814606E-03

    ------------------------------------------------
       NWT REQUIRED            4 OUTER ITERATIONS 
       AND A TOTAL OF          7 INNER ITERATIONS.
    ------------------------------------------------

 NO OUTPUT CONTROL FOR STRESS PERIOD   37   TIME STEP   14
 
 SOLVING FOR HEAD 
                                                   Max.-Head-Change                         Max.-Flux-Residual
  Residual-Control   Outer-Iter.   Inner-Iter.     Column Row Layer    Maximum-Head-Change  Column Row Layer    Maximum-Flux-Residual          L2-NORM 
          0                 1           2             4    7     1       0.2966081029E-01       4    7    1         0.1559479636E+01      0.3447954525E+01
          0                 2           2             4    7     1      -0.2885206912E-02       4    7    1        -0.1559492408E+00      0.3447905100E+00
          0                 3           2             4    7     1       0.1964717103E-03       4    7    1         0.1091643949E-01      0.2413483953E-01
          0                 4           1             4    7     1      -0.7817794389E-05       4    7    1        -0.4464830672E-03      0.9870914346E-03

    ------------------------------------------------
       NWT REQUIRED            4 OUTER ITERATIONS 
       AND A TOTAL OF          7 INNER ITERATIONS.
    ------------------------------------------------

 NO OUTPUT CONTROL FOR STRESS PERIOD   37   TIME STEP   15
 
 SOLVING FOR HEAD 
                                                   Max.-Head-Change                         Max.-Flux-Residual
  Residual-Control   Outer-Iter.   Inner-Iter.     Column Row Layer    Maximum-Head-Change  Column Row Layer    Maximum-Flux-Residual          L2-NORM 
          0                 1           2             4    7     1       0.2931320322E-01       4    7    1         0.1541113715E+01      0.3415650897E+01
          0                 2           2             4    7     1      -0.2851393765E-02       4    7    1        -0.1541126176E+00      0.3415604948E+00
          0                 3           2             4    7     1       0.1941691645E-03       4    7    1         0.1078787610E-01      0.2390874620E-01
          0                 4           1             4    7     1      -0.7726173426E-05       4    7    1        -0.4412248004E-03      0.9778368548E-03

    ------------------------------------------------
       NWT REQUIRED            4 OUTER ITERATIONS 
       AND A TOTAL OF          7 INNER ITERATIONS.
    ------------------------------------------------

 NO OUTPUT CONTROL FOR STRESS PERIOD   37   TIME STEP   16
 
 SOLVING FOR HEAD 
                                                   Max.-Head-Change                         Max.-Flux-Residual
  Residual-Control   Outer-Iter.   Inner-Iter.     Column Row Layer    Maximum-Head-Change  Column Row Layer    Maximum-Flux-Residual          L2-NORM 
          0                 1           2             4    7     1       0.2897138903E-01       4    7    1         0.1523054306E+01      0.3383868613E+01
          0                 2           2             4    7     1      -0.2818144119E-02       4    7    1        -0.1523066464E+00      0.3383825573E+00
          0                 3           2             4    7     1       0.1919049912E-03       4    7    1         0.1066145834E-01      0.2368629951E-01
          0                 4           1             4    7     1      -0.7636080208E-05       4    7    1        -0.4360543137E-03      0.9687071874E-03

    ------------------------------------------------
       NWT REQUIRED            4 OUTER ITERATIONS 
       AND A TOTAL OF          7 INNER ITERATIONS.
    ------------------------------------------------

 NO OUTPUT CONTROL FOR STRESS PERIOD   37   TIME STEP   17
 
 SOLVING FOR HEAD 
                                                   Max.-Head-Change                         Max.-Flux-Residual
  Residual-Control   Outer-Iter.   Inner-Iter.     Column Row Layer    Maximum-Head-Change  Column Row Layer    Maximum-Flux-Residual          L2-NORM 
          0                 1           2             4    7     1       0.2863511668E-01       4    7    1         0.1505287954E+01      0.3352600095E+01
          0                 2           2             4    7     1      -0.2785433553E-02       4    7    1        -0.1505299816E+00      0.3352559996E+00
          0                 3           2             4    7     1       0.1896775270E-03       4    7    1         0.1053709203E-01      0.2346750291E-01
          0                 4           1             4    7     1      -0.7547447267E-05       4    7    1        -0.4309677142E-03      0.9598155422E-03

    ------------------------------------------------
       NWT REQUIRED            4 OUTER ITERATIONS 
       AND A TOTAL OF          7 INNER ITERATIONS.
    ------------------------------------------------

 NO OUTPUT CONTROL FOR STRESS PERIOD   37   TIME STEP   18
 
 SOLVING FOR HEAD 
                                                   Max.-Head-Change                         Max.-Flux-Residual
  Residual-Control   Outer-Iter.   Inner-Iter.     Column Row Layer    Maximum-Head-Change  Column Row Layer    Maximum-Flux-Residual          L2-NORM 
          0                 1           2             4    7     1       0.2830454574E-01       4    7    1         0.1487823518E+01      0.3321835308E+01
          0                 2           2             4    7     1      -0.2753277580E-02       4    7    1        -0.1487835093E+00      0.3321700381E+00
          0                 3           2             4    7     1       0.1874878286E-03       4    7    1         0.1041483919E-01      0.2325149985E-01
          0                 4           1             4    7     1      -0.7460316857E-05       4    7    1        -0.4259675634E-03      0.9509648292E-03

    ------------------------------------------------
       NWT REQUIRED            4 OUTER ITERATIONS 
       AND A TOTAL OF          7 INNER ITERATIONS.
    ------------------------------------------------

 NO OUTPUT CONTROL FOR STRESS PERIOD   37   TIME STEP   19
 
 SOLVING FOR HEAD 
                                                   Max.-Head-Change                         Max.-Flux-Residual
  Residual-Control   Outer-Iter.   Inner-Iter.     Column Row Layer    Maximum-Head-Change  Column Row Layer    Maximum-Flux-Residual          L2-NORM 
          0                 1           2             4    7     1       0.2797928868E-01       4    7    1         0.1470640105E+01      0.3291569157E+01
          0                 2           2             4    7     1      -0.2721638537E-02       4    7    1        -0.1470651401E+00      0.3291533782E+00
          0                 3           2             4    7     1       0.1853333313E-03       4    7    1         0.1029455356E-01      0.2304033480E-01
          0                 4           1             4    7     1      -0.7374587665E-05       4    7    1        -0.4210478871E-03      0.9423162586E-03

    ------------------------------------------------
       NWT REQUIRED            4 OUTER ITERATIONS 
       AND A TOTAL OF          7 INNER ITERATIONS.
    ------------------------------------------------

 NO OUTPUT CONTROL FOR STRESS PERIOD   37   TIME STEP   20
 
 SOLVING FOR HEAD 
                                                   Max.-Head-Change                         Max.-Flux-Residual
  Residual-Control   Outer-Iter.   Inner-Iter.     Column Row Layer    Maximum-Head-Change  Column Row Layer    Maximum-Flux-Residual          L2-NORM 
          0                 1           2             4    7     1       0.2765950904E-01       4    7    1         0.1453746791E+01      0.3261786533E+01
          0                 2           2             4    7     1      -0.2690532296E-02       4    7    1        -0.1453757814E+00      0.3261752889E+00
          0                 3           2             4    7     1       0.1832151157E-03       4    7    1         0.1017629867E-01      0.2283188074E-01
          0                 4           1             4    7     1      -0.7290301598E-05       4    7    1        -0.4162112443E-03      0.9337924411E-03

    ------------------------------------------------
       NWT REQUIRED            4 OUTER ITERATIONS 
       AND A TOTAL OF          7 INNER ITERATIONS.
    ------------------------------------------------

 NO OUTPUT CONTROL FOR STRESS PERIOD   37   TIME STEP   21
 
 SOLVING FOR HEAD 
                                                   Max.-Head-Change                         Max.-Flux-Residual
  Residual-Control   Outer-Iter.   Inner-Iter.     Column Row Layer    Maximum-Head-Change  Column Row Layer    Maximum-Flux-Residual          L2-NORM 
          0                 1           2             4    7     1       0.2734495984E-01       4    7    1         0.1437130177E+01      0.3232475572E+01
          0                 2           2             4    7     1      -0.2659934846E-02       4    7    1        -0.1437140935E+00      0.3232444635E+00
          0                 3           2             4    7     1       0.1811315463E-03       4    7    1         0.1005998071E-01      0.2262677603E-01
          0                 4           1             4    7     1      -0.7207394299E-05       4    7    1        -0.4114538240E-03      0.9254278603E-03

    ------------------------------------------------
       NWT REQUIRED            4 OUTER ITERATIONS 
       AND A TOTAL OF          7 INNER ITERATIONS.
    ------------------------------------------------

 NO OUTPUT CONTROL FOR STRESS PERIOD   37   TIME STEP   22
 
 SOLVING FOR HEAD 
                                                   Max.-Head-Change                         Max.-Flux-Residual
  Residual-Control   Outer-Iter.   Inner-Iter.     Column Row Layer    Maximum-Head-Change  Column Row Layer    Maximum-Flux-Residual          L2-NORM 
          0                 1           2             4    7     1       0.2703553249E-01       4    7    1         0.1420784751E+01      0.3203619249E+01
          0                 2           2             4    7     1      -0.2629832646E-02       4    7    1        -0.1420795251E+00      0.3202886569E+00
          0                 3           2             4    7     1       0.1790817019E-03       4    7    1         0.9945561122E-02      0.2241984086E-01
          0                 4           1             4    7     1      -0.7125829272E-05       4    7    1        -0.4067740579E-03      0.9169322624E-03

    ------------------------------------------------
       NWT REQUIRED            4 OUTER ITERATIONS 
       AND A TOTAL OF          7 INNER ITERATIONS.
    ------------------------------------------------

 NO OUTPUT CONTROL FOR STRESS PERIOD   37   TIME STEP   23
 
 SOLVING FOR HEAD 
                                                   Max.-Head-Change                         Max.-Flux-Residual
  Residual-Control   Outer-Iter.   Inner-Iter.     Column Row Layer    Maximum-Head-Change  Column Row Layer    Maximum-Flux-Residual          L2-NORM 
          0                 1           2             4    7     1       0.2673126687E-01       4    7    1         0.1404712335E+01      0.3175272888E+01
          0                 2           2             4    7     1      -0.2600238505E-02       4    7    1        -0.1404722584E+00      0.3175244558E+00
          0                 3           2             4    7     1       0.1770664544E-03       4    7    1         0.9833052650E-02      0.2222640046E-01
          0                 4           1             4    7     1      -0.7045640365E-05       4    7    1        -0.4021724544E-03      0.9090457764E-03

    ------------------------------------------------
       NWT REQUIRED            4 OUTER ITERATIONS 
       AND A TOTAL OF          7 INNER ITERATIONS.
    ------------------------------------------------

 NO OUTPUT CONTROL FOR STRESS PERIOD   37   TIME STEP   24
 
 SOLVING FOR HEAD 
                                                   Max.-Head-Change                         Max.-Flux-Residual
  Residual-Control   Outer-Iter.   Inner-Iter.     Column Row Layer    Maximum-Head-Change  Column Row Layer    Maximum-Flux-Residual          L2-NORM 
          0                 1           2             4    7     1       0.2643191673E-01       4    7    1         0.1388899934E+01      0.3147388138E+01
          0                 2           2             4    7     1      -0.2571119538E-02       4    7    1        -0.1388909938E+00      0.3147361284E+00
          0                 3           2             4    7     1       0.1750835642E-03       4    7    1         0.9722364299E-02      0.2203124225E-01
          0                 4           1             4    7     1      -0.6966739967E-05       4    7    1        -0.3976453127E-03      0.9010677900E-03

    ------------------------------------------------
       NWT REQUIRED            4 OUTER ITERATIONS 
       AND A TOTAL OF          7 INNER ITERATIONS.
    ------------------------------------------------

 NO OUTPUT CONTROL FOR STRESS PERIOD   37   TIME STEP   25
 
 SOLVING FOR HEAD 
                                                   Max.-Head-Change                         Max.-Flux-Residual
  Residual-Control   Outer-Iter.   Inner-Iter.     Column Row Layer    Maximum-Head-Change  Column Row Layer    Maximum-Flux-Residual          L2-NORM 
          0                 1           2             4    7     1       0.2613752168E-01       4    7    1         0.1373349844E+01      0.3119929977E+01
          0                 2           2             4    7     1      -0.2542482576E-02       4    7    1        -0.1373359610E+00      0.3119904103E+00
          0                 3           2             4    7     1       0.1731334967E-03       4    7    1         0.9613512186E-02      0.2183903185E-01
          0                 4           1             4    7     1      -0.6889144655E-05       4    7    1        -0.3931932447E-03      0.8932032726E-03

    ------------------------------------------------
       NWT REQUIRED            4 OUTER ITERATIONS 
       AND A TOTAL OF          7 INNER ITERATIONS.
    ------------------------------------------------

 NO OUTPUT CONTROL FOR STRESS PERIOD   37   TIME STEP   26
 
 SOLVING FOR HEAD 
                                                   Max.-Head-Change                         Max.-Flux-Residual
  Residual-Control   Outer-Iter.   Inner-Iter.     Column Row Layer    Maximum-Head-Change  Column Row Layer    Maximum-Flux-Residual          L2-NORM 
          0                 1           2             4    7     1       0.2584784427E-01       4    7    1         0.1358049371E+01      0.3092886510E+01
          0                 2           2             4    7     1      -0.2514304546E-02       4    7    1        -0.1358058904E+00      0.3092862024E+00
          0                 3           2             4    7     1       0.1712146800E-03       4    7    1         0.9506407423E-02      0.2164976631E-01
          0                 4           1             4    7     1      -0.6812792952E-05       4    7    1        -0.3888126387E-03      0.8854700900E-03

    ------------------------------------------------
       NWT REQUIRED            4 OUTER ITERATIONS 
       AND A TOTAL OF          7 INNER ITERATIONS.
    ------------------------------------------------

 NO OUTPUT CONTROL FOR STRESS PERIOD   37   TIME STEP   27
 
 SOLVING FOR HEAD 
                                                   Max.-Head-Change                         Max.-Flux-Residual
  Residual-Control   Outer-Iter.   Inner-Iter.     Column Row Layer    Maximum-Head-Change  Column Row Layer    Maximum-Flux-Residual          L2-NORM 
          0                 1           2             4    7     1       0.2556292461E-01       4    7    1         0.1343000793E+01      0.3066251010E+01
          0                 2           2             4    7     1      -0.2486589330E-02       4    7    1        -0.1343010100E+00      0.3066227644E+00
          0                 3           2             4    7     1       0.1693273799E-03       4    7    1         0.9401065961E-02      0.2146331514E-01
          0                 4           1             4    7     1      -0.6737695333E-05       4    7    1        -0.3845041681E-03      0.8778268500E-03

    ------------------------------------------------
       NWT REQUIRED            4 OUTER ITERATIONS 
       AND A TOTAL OF          7 INNER ITERATIONS.
    ------------------------------------------------

 NO OUTPUT CONTROL FOR STRESS PERIOD   37   TIME STEP   28
 
 SOLVING FOR HEAD 
                                                   Max.-Head-Change                         Max.-Flux-Residual
  Residual-Control   Outer-Iter.   Inner-Iter.     Column Row Layer    Maximum-Head-Change  Column Row Layer    Maximum-Flux-Residual          L2-NORM 
          0                 1           2             4    7     1       0.2528266081E-01       4    7    1         0.1328198894E+01      0.3040017302E+01
          0                 2           2             4    7     1      -0.2459326979E-02       4    7    1        -0.1328207982E+00      0.3039994935E+00
          0                 3           2             4    7     1       0.1674709179E-03       4    7    1         0.9297451281E-02      0.2127969503E-01
          0                 4           1             4    7     1      -0.6663825320E-05       4    7    1        -0.3802663325E-03      0.8703139220E-03

    ------------------------------------------------
       NWT REQUIRED            4 OUTER ITERATIONS 
       AND A TOTAL OF          7 INNER ITERATIONS.
    ------------------------------------------------

 NO OUTPUT CONTROL FOR STRESS PERIOD   37   TIME STEP   29
 
 SOLVING FOR HEAD 
                                                   Max.-Head-Change                         Max.-Flux-Residual
  Residual-Control   Outer-Iter.   Inner-Iter.     Column Row Layer    Maximum-Head-Change  Column Row Layer    Maximum-Flux-Residual          L2-NORM 
          0                 1           2             4    7     1       0.2500682431E-01       4    7    1         0.1313631098E+01      0.3014170781E+01
          0                 2           2             4    7     1      -0.2432495292E-02       4    7    1        -0.1313639972E+00      0.3014149346E+00
          0                 3           2             4    7     1       0.1656437826E-03       4    7    1         0.9195475370E-02      0.2109879130E-01
          0                 4           1             4    7     1      -0.6591121665E-05       4    7    1        -0.3760955112E-03      0.8629148132E-03

    ------------------------------------------------
       NWT REQUIRED            4 OUTER ITERATIONS 
       AND A TOTAL OF          7 INNER ITERATIONS.
    ------------------------------------------------

 NO OUTPUT CONTROL FOR STRESS PERIOD   37   TIME STEP   30



 STREAM LISTING     PERIOD     37   STEP       30

 LAYER ROW COL. STREAM  RCH.  FLOW INTO     FLOW TO   FLOW OUT OF   OVRLND.     DIRECT     STREAM       STREAM     STREAM     STREAM   STREAMBED  STREAMBED
                SEG.NO.  NO.  STRM. RCH.    AQUIFER    STRM. RCH.    RUNOFF     PRECIP       ET          HEAD       DEPTH      WIDTH   CONDCTNC.   GRADIENT

   1    1    1     1     1    1.7249E+01  2.0269E-01   1.7047E+01  0.000E+00  0.000E+00  0.000E+00  1.09410E+03  1.052E+00  1.112E+01  5.002E-02  1.351E+00
   1    2    2     1     2    1.7047E+01  3.1257E-01   1.6734E+01  0.000E+00  0.000E+00  0.000E+00  1.08911E+03  1.047E+00  1.103E+01  7.723E-02  1.349E+00
   1    3    3     1     3    1.6734E+01  2.6529E-01   1.6469E+01  0.000E+00  0.000E+00  0.000E+00  1.08346E+03  1.042E+00  1.094E+01  6.563E-02  1.347E+00
   1    3    4     1     4    1.6469E+01  2.4324E-01   1.6226E+01  0.000E+00  0.000E+00  0.000E+00  1.07845E+03  1.038E+00  1.085E+01  6.024E-02  1.346E+00
   1    4    5     2     1    1.4226E+01  3.0073E-01   1.3925E+01  0.000E+00  0.000E+00  0.000E+00  1.07279E+03  8.555E-01  1.200E+01  7.800E-02  1.285E+00
   1    5    6     2     2    1.3925E+01  2.3075E-01   1.3694E+01  0.000E+00  0.000E+00  0.000E+00  1.06736E+03  8.458E-01  1.200E+01  6.000E-02  1.282E+00
   1    6    6     2     3    1.3694E+01  2.3024E-01   1.3464E+01  0.000E+00  0.000E+00  0.000E+00  1.06263E+03  8.373E-01  1.200E+01  6.000E-02  1.279E+00
   1    7    6     2     4    1.3464E+01  2.2972E-01   1.3234E+01  0.000E+00  0.000E+00  0.000E+00  1.05790E+03  8.287E-01  1.200E+01  6.000E-02  1.276E+00
   1    8    6     2     5    1.3234E+01  2.2921E-01   1.3005E+01  0.000E+00  0.000E+00  0.000E+00  1.05318E+03  8.202E-01  1.200E+01  6.000E-02  1.273E+00
   1    3    5     3     1    2.0000E+00  2.8252E-01   1.7175E+00  0.000E+00  0.000E+00  0.000E+00  1.07555E+03  1.909E+00  9.636E+00  7.227E-02  1.955E+00
   1    3    6     3     2    1.7175E+00  2.4905E-01   1.4684E+00  0.000E+00  0.000E+00  0.000E+00  1.07264E+03  1.727E+00  8.909E+00  6.682E-02  1.864E+00
   1    3    7     3     3    1.4684E+00  1.9718E-01   1.2712E+00  0.000E+00  0.000E+00  0.000E+00  1.06987E+03  1.555E+00  8.218E+00  5.547E-02  1.777E+00
   1    4    8     3     4    1.2712E+00  2.2567E-01   1.0456E+00  0.000E+00  0.000E+00  0.000E+00  1.06682E+03  1.364E+00  7.455E+00  6.709E-02  1.682E+00
   1    5    8     3     5    1.0456E+00  1.5790E-01   8.8768E-01  0.000E+00  0.000E+00  0.000E+00  1.06362E+03  1.164E+00  6.655E+00  4.991E-02  1.582E+00
   1    6    8     3     6    8.8768E-01  5.5980E-02   8.3170E-01  0.000E+00  0.000E+00  0.000E+00  1.06158E+03  1.036E+00  6.145E+00  1.844E-02  1.518E+00
   1    5   10     4     1    1.0000E+01  9.0919E-02   9.9091E+00  0.000E+00  0.000E+00  0.000E+00  1.07836E+03  6.368E-01  1.000E+01  2.500E-02  1.212E+00
   1    5    9     4     2    9.9091E+00  1.8158E-01   9.7275E+00  0.000E+00  0.000E+00  0.000E+00  1.07154E+03  6.315E-01  1.000E+01  5.000E-02  1.211E+00
   1    6    8     4     3    9.7275E+00  1.2689E-01   9.6006E+00  0.000E+00  0.000E+00  0.000E+00  1.06381E+03  6.256E-01  1.000E+01  3.500E-02  1.209E+00
   1    6    8     5     1    1.0432E+01  2.2686E-01   1.0205E+01  0.000E+00  0.000E+00  0.000E+00  1.05868E+03  6.790E-01  1.542E+01  6.166E-02  1.226E+00
   1    7    7     5     2    1.0205E+01  2.7894E-01   9.9265E+00  0.000E+00  0.000E+00  0.000E+00  1.05417E+03  6.732E-01  1.519E+01  7.594E-02  1.224E+00
   1    8    7     5     3    9.9265E+00  1.9221E-01   9.7343E+00  0.000E+00  0.000E+00  0.000E+00  1.04992E+03  6.676E-01  1.497E+01  5.241E-02  1.223E+00
   1    8    6     5     4    9.7343E+00  1.3577E-01   9.5985E+00  0.000E+00  0.000E+00  0.000E+00  1.04691E+03  6.637E-01  1.482E+01  3.706E-02  1.221E+00
   1    9    6     6     1    2.2604E+01  2.4874E-01   2.2355E+01  0.000E+00  0.000E+00  0.000E+00  1.04387E+03  1.146E+00  1.200E+01  6.000E-02  1.382E+00
   1   10    7     6     2    2.2355E+01  2.4828E-01   2.2107E+01  0.000E+00  0.000E+00  0.000E+00  1.03932E+03  1.138E+00  1.200E+01  6.000E-02  1.379E+00
   1   11    7     6     3    2.2107E+01  2.4782E-01   2.1859E+01  0.000E+00  0.000E+00  0.000E+00  1.03477E+03  1.130E+00  1.200E+01  6.000E-02  1.377E+00
   1   12    7     6     4    2.1859E+01  2.4736E-01   2.1611E+01  0.000E+00  0.000E+00  0.000E+00  1.03021E+03  1.123E+00  1.200E+01  6.000E-02  1.374E+00
   1   13    7     6     5    2.1611E+01  7.1045E-03   2.1604E+01  0.000E+00  0.000E+00  0.000E+00  1.02703E+03  1.119E+00  1.200E+01  2.400E-02  9.867E-02
   1   14    9     7     1    1.5000E+02  1.3626E+00   1.4864E+02  0.000E+00  0.000E+00  0.000E+00  1.03987E+03  2.288E+00  5.529E+01  5.593E-01  8.121E-01
   1   13    8     7     2    1.4864E+02  1.9354E+00   1.4670E+02  0.000E+00  0.000E+00  0.000E+00  1.03478E+03  2.279E+00  5.525E+01  6.148E-01  1.049E+00
   1   13    7     7     3    1.4670E+02  1.6511E+00   1.4505E+02  0.000E+00  0.000E+00  0.000E+00  1.02969E+03  2.269E+00  5.521E+01  5.584E-01  9.856E-01
   1   13    6     8     1    1.6666E+02  1.0832E+00   1.6557E+02  0.000E+00  0.000E+00  0.000E+00  1.02480E+03  2.927E+00  4.244E+01  4.325E-01  8.349E-01
   1   13    5     8     2    1.6557E+02  3.3358E-01   1.6524E+02  0.000E+00  0.000E+00  0.000E+00  1.01855E+03  2.922E+00  4.237E+01  4.318E-01  2.575E-01
   1   13    4     8     3    1.6524E+02 -1.8848E+00   1.6712E+02  0.000E+00  0.000E+00  0.000E+00  1.01230E+03  2.927E+00  4.244E+01  4.325E+00 -1.453E-01
   1   13    3     8     4    1.6712E+02 -3.3955E+00   1.7052E+02  0.000E+00  0.000E+00  0.000E+00  1.00607E+03  2.945E+00  4.270E+01  4.351E+00 -2.601E-01
   1   13    2     8     5    1.7052E+02 -2.5270E+00   1.7305E+02  0.000E+00  0.000E+00  0.000E+00  9.99839E+02  2.964E+00  4.297E+01  4.379E+00 -1.923E-01
   1   13    1     8     6    1.7305E+02 -1.9816E+00   1.7503E+02  0.000E+00  0.000E+00  0.000E+00  9.94853E+02  2.978E+00  4.319E+01  2.640E+00 -2.502E-01
   1    8    6     9     1    0.0000E+00  0.0000E+00   0.0000E+00  0.000E+00  0.000E+00  0.000E+00  1.07875E+03  0.000E+00  4.000E+00  0.000E+00  1.000E+00
   1    8    5     9     2    0.0000E+00  0.0000E+00   0.0000E+00  0.000E+00  0.000E+00  0.000E+00  1.07825E+03  0.000E+00  4.000E+00  0.000E+00  1.000E+00





UNSATURATED ZONE PACKAGE VOLUMETRIC BUDGET FOR  TIME STEP    30 STRESS PERIOD   37
  ------------------------------------------------------------------------------



     CUMULATIVE VOLUMES      L**3       RATES FOR THIS TIME STEP      L**3/T
     ------------------                 ------------------------

           IN:                                      IN:
           ---                                      ---
        INFILTRATION =  1284092320.4495          INFILTRATION =           0.8475

          OUT:                                     OUT:
          ----                                     ----
              UZF ET =  1282772551.3154                UZF ET =           0.7500
        UZF RECHARGE =       73224.0000          UZF RECHARGE =       0.0000E+00

            IN - OUT =     1246545.1341              IN - OUT =       9.7500E-02

          STORAGE:                                 STORAGE:
          --------                                 --------
      STORAGE CHANGE =     1246545.2117        STORAGE CHANGE =       9.7500E-02

 PERCENT DISCREPANCY IS DIFFERENCE BETWEEN IN-OUT MINUS CHANGE IN STORAGE
 DIVIDED BY THE AVERAGE OF IN AND OUT TIMES 100

 PERCENT DISCREPANCY =           0.00     PERCENT DISCREPANCY =           0.00






1
  VOLUMETRIC BUDGET FOR AGRICULTURAL FIELDS AT  END OF TIME STEP   30, STRESS PERIOD  37
  ------------------------------------------------------------------------------

     CUMULATIVE VOLUMES      L**3       RATES FOR THIS TIME STEP      L**3/T
     ------------------                 ------------------------

           IN:                                      IN:
           ---                                      ---
               AG WELLS  =  1203775104.0000                 AG WELLS  =           0.0000
      DIVERSION SEGMENTS =           0.0000        DIVERSION SEGMENTS =           0.0000
       IRRIGATION PONDS  =           0.0000         IRRIGATION PONDS  =           0.0000
           GW IRRIGATION =           0.0000             GW IRRIGATION =           0.0000
           SW IRRIGATION =           0.0000             SW IRRIGATION =           0.0000
        SYSTEM LOSSES GW =           0.0000          SYSTEM LOSSES GW =           0.0000
        SYSTEM LOSSES SW =           0.0000          SYSTEM LOSSES SW =           0.0000

                TOTAL IN =  1203775104.0000                  TOTAL IN =           0.0000

          OUT:                                     OUT:
          ----                                     ----
               AG WELLS  =           0.0000                 AG WELLS  =           0.0000
      DIVERSION SEGMENTS =           0.0000        DIVERSION SEGMENTS =           0.0000
       IRRIGATION PONDS  =           0.0000         IRRIGATION PONDS  =           0.0000
           GW IRRIGATION =  1203775104.0000             GW IRRIGATION =           0.0000
           SW IRRIGATION =           0.0000             SW IRRIGATION =           0.0000
        SYSTEM LOSSES GW =           0.0000          SYSTEM LOSSES GW =           0.0000
        SYSTEM LOSSES SW =           0.0000          SYSTEM LOSSES SW =           0.0000

               TOTAL OUT =  1203775104.0000                 TOTAL OUT =           0.0000

                IN - OUT =           0.0000                  IN - OUT =           0.0000

     PERCENT DISCREPANCY =           0.00         PERCENT DISCREPANCY =           0.00



1
  VOLUMETRIC BUDGET FOR ENTIRE MODEL AT END OF TIME STEP   30, STRESS PERIOD  37
  ------------------------------------------------------------------------------

     CUMULATIVE VOLUMES      L**3       RATES FOR THIS TIME STEP      L**3/T
     ------------------                 ------------------------

           IN:                                      IN:
           ---                                      ---
             STORAGE     =  1644205312.0000               STORAGE     =           7.8250
       CONSTANT HEAD     =           0.0000         CONSTANT HEAD     =           0.0000
     HEAD DEP BOUNDS     =    27119678.0000       HEAD DEP BOUNDS     =           0.2876
      STREAM LEAKAGE     =  1165323648.0000        STREAM LEAKAGE     =          12.0111
        UZF RECHARGE     =       73223.9531          UZF RECHARGE     =           0.0000
               GW ET     =           0.0000                 GW ET     =           0.0000
     SURFACE LEAKAGE     =           0.0000       SURFACE LEAKAGE     =           0.0000
           AG WELLS      =           0.0000             AG WELLS      =           0.0000

                TOTAL IN =  2836721664.0000                  TOTAL IN =          20.1237

          OUT:                                     OUT:
          ----                                     ----
             STORAGE     =   624725440.0000               STORAGE     =          10.0458
       CONSTANT HEAD     =           0.0000         CONSTANT HEAD     =           0.0000
     HEAD DEP BOUNDS     =    27692356.0000       HEAD DEP BOUNDS     =           0.2889
      STREAM LEAKAGE     =   972160384.0000        STREAM LEAKAGE     =           9.7890
        UZF RECHARGE     =           0.0000          UZF RECHARGE     =           0.0000
               GW ET     =     8372419.5000                 GW ET     =           0.0000
     SURFACE LEAKAGE     =           0.0000       SURFACE LEAKAGE     =           0.0000
           AG WELLS      =  1203775104.0000             AG WELLS      =           0.0000

               TOTAL OUT =  2836725760.0000                 TOTAL OUT =          20.1237

                IN - OUT =       -4096.0000                  IN - OUT =       1.1444E-05

     PERCENT DISCREPANCY =          -0.00         PERCENT DISCREPANCY =           0.00






         TIME SUMMARY AT END OF TIME STEP   30 IN STRESS PERIOD   37
                    SECONDS     MINUTES      HOURS       DAYS        YEARS
                    -----------------------------------------------------------
   TIME STEP LENGTH  87667.      1461.1      24.352      1.0147     2.77799E-03
 STRESS PERIOD TIME 2.63000E+06  43833.      730.56      30.440     8.33397E-02
         TOTAL TIME 9.47660E+07 1.57943E+06  26324.      1096.8      3.0030    
1
1
                            STRESS PERIOD NO.   38, LENGTH =   2630000.    
                            -----------------------------------------------

                              NUMBER OF TIME STEPS =    30

                               MULTIPLIER FOR DELT =     1.000

                            INITIAL TIME STEP SIZE =   87666.66    

 REUSING NON-PARAMETER GHB CELLS FROM LAST STRESS PERIOD

      2 GHB CELLS

 REUSING STREAM SEGMENT DATA FROM LAST STRESS PERIOD



            AREAL INFILTRATION RATE
 READING ON UNIT   19 WITH FORMAT: (FREE)              

            1           2           3           4           5           6           7           8           9          10
 ........................................................................................................................
   1   1.0000E-10  2.0000E-10   0.000       0.000       0.000       0.000       0.000       0.000       0.000       0.000    
   2   2.0000E-10  1.0000E-10  2.0000E-10   0.000       0.000      8.0000E-10  8.0000E-10  5.0000E-10   0.000       0.000    
   3    0.000      5.0000E-10  1.0000E-10  1.0000E-10  8.0000E-10  8.0000E-10  5.0000E-10  5.0000E-10   0.000       0.000    
   4   8.0000E-10  5.0000E-10  1.0000E-10  1.0000E-10  1.0000E-10  1.0000E-10  1.0000E-10  1.0000E-10  2.0000E-10   0.000    
   5   8.0000E-10  5.0000E-10  1.0000E-10  1.0000E-10  1.0000E-10  1.0000E-10  1.0000E-10  1.0000E-10  1.0000E-10  1.0000E-10
   6   8.0000E-10  5.0000E-10  5.0000E-10  2.0000E-10  2.0000E-10  1.0000E-10  1.0000E-10  1.0000E-10  1.0000E-10  5.0000E-10
   7   8.0000E-10  5.0000E-10  5.0000E-10  2.0000E-10  2.0000E-10  1.0000E-10  1.0000E-10  2.0000E-10  2.0000E-10   0.000    
   8    0.000      5.0000E-10  5.0000E-10  2.0000E-10  2.0000E-10  1.0000E-10  1.0000E-10  2.0000E-10  5.0000E-10   0.000    
   9    0.000      5.0000E-10  5.0000E-10  2.0000E-10  2.0000E-10  1.0000E-10  1.0000E-10  2.0000E-10  5.0000E-10   0.000    
  10    0.000      5.0000E-10  5.0000E-10  2.0000E-10  2.0000E-10  1.0000E-10  1.0000E-10  2.0000E-10  5.0000E-10  8.0000E-10
  11    0.000      1.0000E-10  1.0000E-10  1.0000E-10  1.0000E-10  1.0000E-10  1.0000E-10  2.0000E-10  5.0000E-10   0.000    
  12   1.0000E-10  1.0000E-10  1.0000E-10  1.0000E-10  1.0000E-10  1.0000E-10  1.0000E-10  1.0000E-10  2.0000E-10   0.000    
  13   1.0000E-10  1.0000E-10  2.0000E-10  2.0000E-10  2.0000E-10  2.0000E-10  2.0000E-10  1.0000E-10  1.0000E-10   0.000    
  14    0.000      2.0000E-10  5.0000E-10  5.0000E-10  5.0000E-10  5.0000E-10  5.0000E-10  2.0000E-10  1.0000E-10   0.000    
  15    0.000       0.000      8.0000E-10  8.0000E-10  8.0000E-10  8.0000E-10   0.000       0.000       0.000       0.000    

                  ET RATE =  5.000000E-10

 USING ET EXTINCTION DEPTH FROM PREVIOUS STRESS PERIOD. CURRENT PERIOD IS:      38

 USING EXTINCTION WATER CONTENT FROM PREVIOUS STRESS PERIOD. CURRENT PERIOD IS:      38

 USING AIR ENTRY PRESSURE FROM PREVIOUS STRESS PERIOD. CURRENT PERIOD IS:      38

 USING ROOT PRESSURE HEAD FROM PREVIOUS STRESS PERIOD. CURRENT PERIOD IS:      38

 USING ROOT ACTIVITY FROM PREVIOUS STRESS PERIOD. CURRENT PERIOD IS:      38

 PROCESSING AG STRESS PERIOD DATA

 READING AG STRESS PERIOD DATA

 READING IRRIGATION SEGMENT

 READING IRRIGATION WELL

 READING SUPPLEMENTAL WELL

 NO IRRPOND OR REUSING IRRPOND DATA FROM LAST STRESS PERIOD

 END PROCESSING AG STRESS PERIOD DATA OPTIONS
 
 SOLVING FOR HEAD 
                                                   Max.-Head-Change                         Max.-Flux-Residual
  Residual-Control   Outer-Iter.   Inner-Iter.     Column Row Layer    Maximum-Head-Change  Column Row Layer    Maximum-Flux-Residual          L2-NORM 
          0                 1           2             4    7     1       0.2473559117E-01       4    7    1         0.1299307443E+01      0.2988710596E+01
          0                 2           2             4    7     1      -0.2406111395E-02       4    7    1        -0.1299316109E+00      0.2988689782E+00
          0                 3           2             4    7     1       0.1638471401E-03       4    7    1         0.9095208493E-02      0.2092057106E-01
          0                 4           1             4    7     1      -0.6519631454E-05       4    7    1        -0.3719945830E-03      0.8556266787E-03

    ------------------------------------------------
       NWT REQUIRED            4 OUTER ITERATIONS 
       AND A TOTAL OF          7 INNER ITERATIONS.
    ------------------------------------------------

 NO OUTPUT CONTROL FOR STRESS PERIOD   38   TIME STEP    1
 
 SOLVING FOR HEAD 
                                                   Max.-Head-Change                         Max.-Flux-Residual
  Residual-Control   Outer-Iter.   Inner-Iter.     Column Row Layer    Maximum-Head-Change  Column Row Layer    Maximum-Flux-Residual          L2-NORM 
          0                 1           2             4    7     1       0.2446858152E-01       4    7    1         0.1285207870E+01      0.2967380072E+01
          0                 2           2             4    7     1      -0.2380138991E-02       4    7    1        -0.1285216333E+00      0.2967701505E+00
          0                 3           2             4    7     1       0.1620785189E-03       4    7    1         0.8996510219E-02      0.2077296250E-01
          0                 4           1             4    7     1      -0.6449256830E-05       4    7    1        -0.3679578308E-03      0.8495483007E-03

    ------------------------------------------------
       NWT REQUIRED            4 OUTER ITERATIONS 
       AND A TOTAL OF          7 INNER ITERATIONS.
    ------------------------------------------------

 NO OUTPUT CONTROL FOR STRESS PERIOD   38   TIME STEP    2
 
 SOLVING FOR HEAD 
                                                   Max.-Head-Change                         Max.-Flux-Residual
  Residual-Control   Outer-Iter.   Inner-Iter.     Column Row Layer    Maximum-Head-Change  Column Row Layer    Maximum-Flux-Residual          L2-NORM 
          0                 1           2             4    7     1       0.2420595830E-01       4    7    1         0.1271341836E+01      0.2948119962E+01
          0                 2           2             4    7     1      -0.2354591967E-02       4    7    1        -0.1271350102E+00      0.2947888296E+00
          0                 3           2             4    7     1       0.1603388638E-03       4    7    1         0.8899446732E-02      0.2063306490E-01
          0                 4           1             4    7     1      -0.6380034288E-05       4    7    1        -0.3639879208E-03      0.8437624351E-03

    ------------------------------------------------
       NWT REQUIRED            4 OUTER ITERATIONS 
       AND A TOTAL OF          7 INNER ITERATIONS.
    ------------------------------------------------

 NO OUTPUT CONTROL FOR STRESS PERIOD   38   TIME STEP    3
 
 SOLVING FOR HEAD 
                                                   Max.-Head-Change                         Max.-Flux-Residual
  Residual-Control   Outer-Iter.   Inner-Iter.     Column Row Layer    Maximum-Head-Change  Column Row Layer    Maximum-Flux-Residual          L2-NORM 
          0                 1           2             4    7     1       0.2394736477E-01       4    7    1         0.1257688705E+01      0.2923282128E+01
          0                 2           2             4    7     1      -0.2329437584E-02       4    7    1        -0.1257696779E+00      0.2923073594E+00
          0                 3           2             4    7     1       0.1586259464E-03       4    7    1         0.8803873614E-02      0.2045951904E-01
          0                 4           1             4    7     1      -0.6311875410E-05       4    7    1        -0.3600789744E-03      0.8366857417E-03

    ------------------------------------------------
       NWT REQUIRED            4 OUTER ITERATIONS 
       AND A TOTAL OF          7 INNER ITERATIONS.
    ------------------------------------------------

 NO OUTPUT CONTROL FOR STRESS PERIOD   38   TIME STEP    4
 
 SOLVING FOR HEAD 
                                                   Max.-Head-Change                         Max.-Flux-Residual
  Residual-Control   Outer-Iter.   Inner-Iter.     Column Row Layer    Maximum-Head-Change  Column Row Layer    Maximum-Flux-Residual          L2-NORM 
          0                 1           2             4    7     1       0.2369298274E-01       4    7    1         0.1244259067E+01      0.2898851091E+01
          0                 2           2             4    7     1      -0.2304692872E-02       4    7    1        -0.1244266955E+00      0.2898664521E+00
          0                 3           2             4    7     1       0.1569409261E-03       4    7    1         0.8709864986E-02      0.2028889887E-01
          0                 4           1             4    7     1      -0.6244827168E-05       4    7    1        -0.3562340169E-03      0.8296493719E-03

    ------------------------------------------------
       NWT REQUIRED            4 OUTER ITERATIONS 
       AND A TOTAL OF          7 INNER ITERATIONS.
    ------------------------------------------------

 NO OUTPUT CONTROL FOR STRESS PERIOD   38   TIME STEP    5
 
 SOLVING FOR HEAD 
                                                   Max.-Head-Change                         Max.-Flux-Residual
  Residual-Control   Outer-Iter.   Inner-Iter.     Column Row Layer    Maximum-Head-Change  Column Row Layer    Maximum-Flux-Residual          L2-NORM 
          0                 1           2             4    7     1       0.2344258968E-01       4    7    1         0.1231040489E+01      0.2874807369E+01
          0                 2           2             4    7     1      -0.2280336185E-02       4    7    1        -0.1231048195E+00      0.2874639140E+00
          0                 3           2             4    7     1       0.1552823286E-03       4    7    1         0.8617333796E-02      0.2012087796E-01
          0                 4           1             4    7     1      -0.6178830041E-05       4    7    1        -0.3524494819E-03      0.8228389865E-03

    ------------------------------------------------
       NWT REQUIRED            4 OUTER ITERATIONS 
       AND A TOTAL OF          7 INNER ITERATIONS.
    ------------------------------------------------

 NO OUTPUT CONTROL FOR STRESS PERIOD   38   TIME STEP    6
 
 SOLVING FOR HEAD 
                                                   Max.-Head-Change                         Max.-Flux-Residual
  Residual-Control   Outer-Iter.   Inner-Iter.     Column Row Layer    Maximum-Head-Change  Column Row Layer    Maximum-Flux-Residual          L2-NORM 
          0                 1           2             4    7     1       0.2319609984E-01       4    7    1         0.1218028732E+01      0.2851134210E+01
          0                 2           2             4    7     1      -0.2256359184E-02       4    7    1        -0.1218036261E+00      0.2850982750E+00
          0                 3           2             4    7     1       0.1536495860E-03       4    7    1         0.8526250385E-02      0.1995544141E-01
          0                 4           1             4    7     1      -0.6113861349E-05       4    7    1        -0.3487241579E-03      0.8160619323E-03

    ------------------------------------------------
       NWT REQUIRED            4 OUTER ITERATIONS 
       AND A TOTAL OF          7 INNER ITERATIONS.
    ------------------------------------------------

 NO OUTPUT CONTROL FOR STRESS PERIOD   38   TIME STEP    7
 
 SOLVING FOR HEAD 
                                                   Max.-Head-Change                         Max.-Flux-Residual
  Residual-Control   Outer-Iter.   Inner-Iter.     Column Row Layer    Maximum-Head-Change  Column Row Layer    Maximum-Flux-Residual          L2-NORM 
          0                 1           2             4    7     1       0.2295356882E-01       4    7    1         0.1205226649E+01      0.2827832320E+01
          0                 2           2             4    7     1      -0.2232767273E-02       4    7    1        -0.1205234006E+00      0.2827694816E+00
          0                 3           2             4    7     1       0.1520430668E-03       4    7    1         0.8436634714E-02      0.1979258642E-01
          0                 4           1             4    7     1      -0.6049936633E-05       4    7    1        -0.3450588756E-03      0.8094428103E-03

    ------------------------------------------------
       NWT REQUIRED            4 OUTER ITERATIONS 
       AND A TOTAL OF          7 INNER ITERATIONS.
    ------------------------------------------------

 NO OUTPUT CONTROL FOR STRESS PERIOD   38   TIME STEP    8
 
 SOLVING FOR HEAD 
                                                   Max.-Head-Change                         Max.-Flux-Residual
  Residual-Control   Outer-Iter.   Inner-Iter.     Column Row Layer    Maximum-Head-Change  Column Row Layer    Maximum-Flux-Residual          L2-NORM 
          0                 1           2             4    7     1       0.2271464410E-01       4    7    1         0.1192615224E+01      0.2804879683E+01
          0                 2           2             4    7     1      -0.2209526163E-02       4    7    1        -0.1192622413E+00      0.2804754934E+00
          0                 3           2             4    7     1       0.1504604357E-03       4    7    1         0.8348353687E-02      0.1963211734E-01
          0                 4           1             4    7     1      -0.5986961951E-05       4    7    1        -0.3414481648E-03      0.8029055849E-03

    ------------------------------------------------
       NWT REQUIRED            4 OUTER ITERATIONS 
       AND A TOTAL OF          7 INNER ITERATIONS.
    ------------------------------------------------

 NO OUTPUT CONTROL FOR STRESS PERIOD   38   TIME STEP    9
 
 SOLVING FOR HEAD 
                                                   Max.-Head-Change                         Max.-Flux-Residual
  Residual-Control   Outer-Iter.   Inner-Iter.     Column Row Layer    Maximum-Head-Change  Column Row Layer    Maximum-Flux-Residual          L2-NORM 
          0                 1           2             4    7     1       0.2247965553E-01       4    7    1         0.1180212679E+01      0.2782274613E+01
          0                 2           2             4    7     1      -0.2186667941E-02       4    7    1        -0.1180219705E+00      0.2782160543E+00
          0                 3           2             4    7     1       0.1489038779E-03       4    7    1         0.8261534844E-02      0.1947403549E-01
          0                 4           1             4    7     1      -0.5925025029E-05       4    7    1        -0.3378972658E-03      0.7964181529E-03

    ------------------------------------------------
       NWT REQUIRED            4 OUTER ITERATIONS 
       AND A TOTAL OF          7 INNER ITERATIONS.
    ------------------------------------------------

 NO OUTPUT CONTROL FOR STRESS PERIOD   38   TIME STEP   10
 
 SOLVING FOR HEAD 
                                                   Max.-Head-Change                         Max.-Flux-Residual
  Residual-Control   Outer-Iter.   Inner-Iter.     Column Row Layer    Maximum-Head-Change  Column Row Layer    Maximum-Flux-Residual          L2-NORM 
          0                 1           2             4    7     1       0.2224824480E-01       4    7    1         0.1167999617E+01      0.2760003967E+01
          0                 2           2             4    7     1      -0.2164157752E-02       4    7    1        -0.1168006483E+00      0.2759900156E+00
          0                 3           2             4    7     1       0.1473710199E-03       4    7    1         0.8176042422E-02      0.1931832063E-01
          0                 4           1             4    7     1      -0.5864030887E-05       4    7    1        -0.3344006116E-03      0.7900427702E-03

    ------------------------------------------------
       NWT REQUIRED            4 OUTER ITERATIONS 
       AND A TOTAL OF          7 INNER ITERATIONS.
    ------------------------------------------------

 NO OUTPUT CONTROL FOR STRESS PERIOD   38   TIME STEP   11
 
 SOLVING FOR HEAD 
                                                   Max.-Head-Change                         Max.-Flux-Residual
  Residual-Control   Outer-Iter.   Inner-Iter.     Column Row Layer    Maximum-Head-Change  Column Row Layer    Maximum-Flux-Residual          L2-NORM 
          0                 1           2             4    7     1       0.2202034382E-01       4    7    1         0.1155972058E+01      0.2738059707E+01
          0                 2           2             4    7     1      -0.2141988970E-02       4    7    1        -0.1155978769E+00      0.2737964448E+00
          0                 3           2             4    7     1       0.1458614106E-03       4    7    1         0.8091848531E-02      0.1916482277E-01
          0                 4           1             4    7     1      -0.5803962601E-05       4    7    1        -0.3309571041E-03      0.7837493954E-03

    ------------------------------------------------
       NWT REQUIRED            4 OUTER ITERATIONS 
       AND A TOTAL OF          7 INNER ITERATIONS.
    ------------------------------------------------

 NO OUTPUT CONTROL FOR STRESS PERIOD   38   TIME STEP   12
 
 SOLVING FOR HEAD 
                                                   Max.-Head-Change                         Max.-Flux-Residual
  Residual-Control   Outer-Iter.   Inner-Iter.     Column Row Layer    Maximum-Head-Change  Column Row Layer    Maximum-Flux-Residual          L2-NORM 
          0                 1           2             4    7     1       0.2179600837E-01       4    7    1         0.1144133774E+01      0.2716426408E+01
          0                 2           2             4    7     1      -0.2120167025E-02       4    7    1        -0.1144140335E+00      0.2716339128E+00
          0                 3           2             4    7     1       0.1443754192E-03       4    7    1         0.8008979597E-02      0.1901353521E-01
          0                 4           1             4    7     1      -0.5744833641E-05       4    7    1        -0.3275677561E-03      0.7775576022E-03

    ------------------------------------------------
       NWT REQUIRED            4 OUTER ITERATIONS 
       AND A TOTAL OF          7 INNER ITERATIONS.
    ------------------------------------------------

 NO OUTPUT CONTROL FOR STRESS PERIOD   38   TIME STEP   13
 
 SOLVING FOR HEAD 
                                                   Max.-Head-Change                         Max.-Flux-Residual
  Residual-Control   Outer-Iter.   Inner-Iter.     Column Row Layer    Maximum-Head-Change  Column Row Layer    Maximum-Flux-Residual          L2-NORM 
          0                 1           2             4    7     1       0.2157516511E-01       4    7    1         0.1132480358E+01      0.2695109381E+01
          0                 2           2             4    7     1      -0.2098684780E-02       4    7    1        -0.1132486771E+00      0.2695029253E+00
          0                 3           2             4    7     1       0.1429125598E-03       4    7    1         0.7927404764E-02      0.1886443025E-01
          0                 4           1             4    7     1      -0.5686624666E-05       4    7    1        -0.3242313171E-03      0.7715403628E-03

    ------------------------------------------------
       NWT REQUIRED            4 OUTER ITERATIONS 
       AND A TOTAL OF          7 INNER ITERATIONS.
    ------------------------------------------------

 NO OUTPUT CONTROL FOR STRESS PERIOD   38   TIME STEP   14
 
 SOLVING FOR HEAD 
                                                   Max.-Head-Change                         Max.-Flux-Residual
  Residual-Control   Outer-Iter.   Inner-Iter.     Column Row Layer    Maximum-Head-Change  Column Row Layer    Maximum-Flux-Residual          L2-NORM 
          0                 1           2             4    7     1       0.2135760498E-01       4    7    1         0.1121000703E+01      0.2674091542E+01
          0                 2           2             4    7     1      -0.2077526200E-02       4    7    1        -0.1121006973E+00      0.2674154974E+00
          0                 3           2             4    7     1       0.1414717411E-03       4    7    1         0.7847046279E-02      0.1871835923E-01
          0                 4           1             4    7     1      -0.5629293423E-05       4    7    1        -0.3209446606E-03      0.7655380615E-03

    ------------------------------------------------
       NWT REQUIRED            4 OUTER ITERATIONS 
       AND A TOTAL OF          7 INNER ITERATIONS.
    ------------------------------------------------

 NO OUTPUT CONTROL FOR STRESS PERIOD   38   TIME STEP   15
 
 SOLVING FOR HEAD 
                                                   Max.-Head-Change                         Max.-Flux-Residual
  Residual-Control   Outer-Iter.   Inner-Iter.     Column Row Layer    Maximum-Head-Change  Column Row Layer    Maximum-Flux-Residual          L2-NORM 
          0                 1           2             4    7     1       0.2114330926E-01       4    7    1         0.1109698345E+01      0.2653366990E+01
          0                 2           2             4    7     1      -0.2056676580E-02       4    7    1        -0.1109704478E+00      0.2653298607E+00
          0                 3           2             4    7     1       0.1400519611E-03       4    7    1         0.7767928894E-02      0.1857239861E-01
          0                 4           1             4    7     1      -0.5572798813E-05       4    7    1        -0.3177087578E-03      0.7595526872E-03

    ------------------------------------------------
       NWT REQUIRED            4 OUTER ITERATIONS 
       AND A TOTAL OF          7 INNER ITERATIONS.
    ------------------------------------------------

 NO OUTPUT CONTROL FOR STRESS PERIOD   38   TIME STEP   16
 
 SOLVING FOR HEAD 
                                                   Max.-Head-Change                         Max.-Flux-Residual
  Residual-Control   Outer-Iter.   Inner-Iter.     Column Row Layer    Maximum-Head-Change  Column Row Layer    Maximum-Flux-Residual          L2-NORM 
          0                 1           2             4    7     1       0.2093223043E-01       4    7    1         0.1098565700E+01      0.2632855795E+01
          0                 2           2             4    7     1      -0.2036144165E-02       4    7    1        -0.1098571698E+00      0.2632792327E+00
          0                 3           2             4    7     1       0.1386537815E-03       4    7    1         0.7689999519E-02      0.1842892085E-01
          0                 4           1             4    7     1      -0.5517164091E-05       4    7    1        -0.3145214419E-03      0.7537301197E-03

    ------------------------------------------------
       NWT REQUIRED            4 OUTER ITERATIONS 
       AND A TOTAL OF          7 INNER ITERATIONS.
    ------------------------------------------------

 NO OUTPUT CONTROL FOR STRESS PERIOD   38   TIME STEP   17
 
 SOLVING FOR HEAD 
                                                   Max.-Head-Change                         Max.-Flux-Residual
  Residual-Control   Outer-Iter.   Inner-Iter.     Column Row Layer    Maximum-Head-Change  Column Row Layer    Maximum-Flux-Residual          L2-NORM 
          0                 1           2             4    7     1       0.2072430133E-01       4    7    1         0.1087599615E+01      0.2612627063E+01
          0                 2           2             4    7     1      -0.2015918139E-02       4    7    1        -0.1087605483E+00      0.2612567679E+00
          0                 3           2             4    7     1       0.1372764663E-03       4    7    1         0.7613236123E-02      0.1828741281E-01
          0                 4           1             4    7     1      -0.5462359554E-05       4    7    1        -0.3113818104E-03      0.7479495127E-03

    ------------------------------------------------
       NWT REQUIRED            4 OUTER ITERATIONS 
       AND A TOTAL OF          7 INNER ITERATIONS.
    ------------------------------------------------

 NO OUTPUT CONTROL FOR STRESS PERIOD   38   TIME STEP   18
 
 SOLVING FOR HEAD 
                                                   Max.-Head-Change                         Max.-Flux-Residual
  Residual-Control   Outer-Iter.   Inner-Iter.     Column Row Layer    Maximum-Head-Change  Column Row Layer    Maximum-Flux-Residual          L2-NORM 
          0                 1           2             4    7     1       0.2051933045E-01       4    7    1         0.1076789535E+01      0.2592678963E+01
          0                 2           2             4    7     1      -0.1995979872E-02       4    7    1        -0.1076795276E+00      0.2592624089E+00
          0                 3           2             4    7     1       0.1359187461E-03       4    7    1         0.7537564758E-02      0.1814783701E-01
          0                 4           1             4    7     1      -0.5408334546E-05       4    7    1        -0.3082868532E-03      0.7422105854E-03

    ------------------------------------------------
       NWT REQUIRED            4 OUTER ITERATIONS 
       AND A TOTAL OF          7 INNER ITERATIONS.
    ------------------------------------------------

 NO OUTPUT CONTROL FOR STRESS PERIOD   38   TIME STEP   19
 
 SOLVING FOR HEAD 
                                                   Max.-Head-Change                         Max.-Flux-Residual
  Residual-Control   Outer-Iter.   Inner-Iter.     Column Row Layer    Maximum-Head-Change  Column Row Layer    Maximum-Flux-Residual          L2-NORM 
          0                 1           2             4    7     1       0.2031753124E-01       4    7    1         0.1066147441E+01      0.2573008908E+01
          0                 2           2             4    7     1      -0.1976350126E-02       4    7    1        -0.1066153057E+00      0.2572957290E+00
          0                 3           2             4    7     1       0.1345820350E-03       4    7    1         0.7463069310E-02      0.1801017558E-01
          0                 4           1             4    7     1      -0.5355145595E-05       4    7    1        -0.3052399843E-03      0.7365799580E-03

    ------------------------------------------------
       NWT REQUIRED            4 OUTER ITERATIONS 
       AND A TOTAL OF          7 INNER ITERATIONS.
    ------------------------------------------------

 NO OUTPUT CONTROL FOR STRESS PERIOD   38   TIME STEP   20
 
 SOLVING FOR HEAD 
                                                   Max.-Head-Change                         Max.-Flux-Residual
  Residual-Control   Outer-Iter.   Inner-Iter.     Column Row Layer    Maximum-Head-Change  Column Row Layer    Maximum-Flux-Residual          L2-NORM 
          0                 1           2             4    7     1       0.2011870697E-01       4    7    1         0.1055662489E+01      0.2553609019E+01
          0                 2           2             4    7     1      -0.1957009766E-02       4    7    1        -0.1055667983E+00      0.2553560680E+00
          0                 3           2             4    7     1       0.1332650298E-03       4    7    1         0.7389673873E-02      0.1787445863E-01
          0                 4           1             4    7     1      -0.5302740893E-05       4    7    1        -0.3022381070E-03      0.7310493788E-03

    ------------------------------------------------
       NWT REQUIRED            4 OUTER ITERATIONS 
       AND A TOTAL OF          7 INNER ITERATIONS.
    ------------------------------------------------

 NO OUTPUT CONTROL FOR STRESS PERIOD   38   TIME STEP   21
 
 SOLVING FOR HEAD 
                                                   Max.-Head-Change                         Max.-Flux-Residual
  Residual-Control   Outer-Iter.   Inner-Iter.     Column Row Layer    Maximum-Head-Change  Column Row Layer    Maximum-Flux-Residual          L2-NORM 
          0                 1           2             4    7     1       0.1992266487E-01       4    7    1         0.1045324478E+01      0.2534468965E+01
          0                 2           2             4    7     1      -0.1937940038E-02       4    7    1        -0.1045329854E+00      0.2534423313E+00
          0                 3           2             4    7     1       0.1319664540E-03       4    7    1         0.7317307055E-02      0.1774049692E-01
          0                 4           1             4    7     1      -0.5251069208E-05       4    7    1        -0.2992782975E-03      0.7255429970E-03

    ------------------------------------------------
       NWT REQUIRED            4 OUTER ITERATIONS 
       AND A TOTAL OF          7 INNER ITERATIONS.
    ------------------------------------------------

 NO OUTPUT CONTROL FOR STRESS PERIOD   38   TIME STEP   22
 
 SOLVING FOR HEAD 
                                                   Max.-Head-Change                         Max.-Flux-Residual
  Residual-Control   Outer-Iter.   Inner-Iter.     Column Row Layer    Maximum-Head-Change  Column Row Layer    Maximum-Flux-Residual          L2-NORM 
          0                 1           2             4    7     1       0.1972962275E-01       4    7    1         0.1035145326E+01      0.2515589392E+01
          0                 2           2             4    7     1      -0.1919162133E-02       4    7    1        -0.1035150586E+00      0.2515545106E+00
          0                 3           2             4    7     1       0.1306877501E-03       4    7    1         0.7246052273E-02      0.1760840706E-01
          0                 4           1             4    7     1      -0.5200188219E-05       4    7    1        -0.2963639711E-03      0.7201683568E-03

    ------------------------------------------------
       NWT REQUIRED            4 OUTER ITERATIONS 
       AND A TOTAL OF          7 INNER ITERATIONS.
    ------------------------------------------------

 NO OUTPUT CONTROL FOR STRESS PERIOD   38   TIME STEP   23
 
 SOLVING FOR HEAD 
                                                   Max.-Head-Change                         Max.-Flux-Residual
  Residual-Control   Outer-Iter.   Inner-Iter.     Column Row Layer    Maximum-Head-Change  Column Row Layer    Maximum-Flux-Residual          L2-NORM 
          0                 1           2             4    7     1       0.1953938885E-01       4    7    1         0.1025114414E+01      0.2496968379E+01
          0                 2           2             4    7     1      -0.1900657394E-02       4    7    1        -0.1025119561E+00      0.2496927787E+00
          0                 3           2             4    7     1       0.1294276476E-03       4    7    1         0.7175835176E-02      0.1747808066E-01
          0                 4           1             4    7     1      -0.5150047732E-05       4    7    1        -0.2934920901E-03      0.7148344459E-03

    ------------------------------------------------
       NWT REQUIRED            4 OUTER ITERATIONS 
       AND A TOTAL OF          7 INNER ITERATIONS.
    ------------------------------------------------

 NO OUTPUT CONTROL FOR STRESS PERIOD   38   TIME STEP   24
 
 SOLVING FOR HEAD 
                                                   Max.-Head-Change                         Max.-Flux-Residual
  Residual-Control   Outer-Iter.   Inner-Iter.     Column Row Layer    Maximum-Head-Change  Column Row Layer    Maximum-Flux-Residual          L2-NORM 
          0                 1           2             4    7     1       0.1935190635E-01       4    7    1         0.1015229102E+01      0.2478591914E+01
          0                 2           2             4    7     1      -0.1882420294E-02       4    7    1        -0.1015234140E+00      0.2478553431E+00
          0                 3           2             4    7     1       0.1281857699E-03       4    7    1         0.7106637266E-02      0.1734950532E-01
          0                 4           1             4    7     1      -0.5100632203E-05       4    7    1        -0.2906619004E-03      0.7095857909E-03

    ------------------------------------------------
       NWT REQUIRED            4 OUTER ITERATIONS 
       AND A TOTAL OF          7 INNER ITERATIONS.
    ------------------------------------------------

 NO OUTPUT CONTROL FOR STRESS PERIOD   38   TIME STEP   25
 
 SOLVING FOR HEAD 
                                                   Max.-Head-Change                         Max.-Flux-Residual
  Residual-Control   Outer-Iter.   Inner-Iter.     Column Row Layer    Maximum-Head-Change  Column Row Layer    Maximum-Flux-Residual          L2-NORM 
          0                 1           2             4    7     1       0.1916712531E-01       4    7    1         0.1005486446E+01      0.2460465827E+01
          0                 2           2             4    7     1      -0.1864445978E-02       4    7    1        -0.1005491377E+00      0.2460429514E+00
          0                 3           2             4    7     1       0.1269617874E-03       4    7    1         0.7038438027E-02      0.1722266328E-01
          0                 4           1             4    7     1      -0.5051928508E-05       4    7    1        -0.2878725279E-03      0.7043755288E-03

    ------------------------------------------------
       NWT REQUIRED            4 OUTER ITERATIONS 
       AND A TOTAL OF          7 INNER ITERATIONS.
    ------------------------------------------------

 NO OUTPUT CONTROL FOR STRESS PERIOD   38   TIME STEP   26
 
 SOLVING FOR HEAD 
                                                   Max.-Head-Change                         Max.-Flux-Residual
  Residual-Control   Outer-Iter.   Inner-Iter.     Column Row Layer    Maximum-Head-Change  Column Row Layer    Maximum-Flux-Residual          L2-NORM 
          0                 1           2             4    7     1       0.1898512696E-01       4    7    1         0.9958911624E+00      0.2442573024E+01
          0                 2           2             4    7     1      -0.1846742345E-02       4    7    1        -0.9958959879E-01      0.2442538461E+00
          0                 3           2             4    7     1       0.1257562373E-03       4    7    1         0.6971270352E-02      0.1709740948E-01
          0                 4           1             4    7     1      -0.5003959096E-05       4    7    1        -0.2851253955E-03      0.6992739097E-03

    ------------------------------------------------
       NWT REQUIRED            4 OUTER ITERATIONS 
       AND A TOTAL OF          7 INNER ITERATIONS.
    ------------------------------------------------

 NO OUTPUT CONTROL FOR STRESS PERIOD   38   TIME STEP   27
 
 SOLVING FOR HEAD 
                                                   Max.-Head-Change                         Max.-Flux-Residual
  Residual-Control   Outer-Iter.   Inner-Iter.     Column Row Layer    Maximum-Head-Change  Column Row Layer    Maximum-Flux-Residual          L2-NORM 
          0                 1           2             4    7     1       0.1880558564E-01       4    7    1         0.9864255446E+00      0.2424915694E+01
          0                 2           2             4    7     1      -0.1829277719E-02       4    7    1        -0.9864302677E-01      0.2424882673E+00
          0                 3           2             4    7     1       0.1245669622E-03       4    7    1         0.6905010396E-02      0.1697386546E-01
          0                 4           1             4    7     1      -0.4956636357E-05       4    7    1        -0.2824153289E-03      0.6942277327E-03

    ------------------------------------------------
       NWT REQUIRED            4 OUTER ITERATIONS 
       AND A TOTAL OF          7 INNER ITERATIONS.
    ------------------------------------------------

 NO OUTPUT CONTROL FOR STRESS PERIOD   38   TIME STEP   28
 
 SOLVING FOR HEAD 
                                                   Max.-Head-Change                         Max.-Flux-Residual
  Residual-Control   Outer-Iter.   Inner-Iter.     Column Row Layer    Maximum-Head-Change  Column Row Layer    Maximum-Flux-Residual          L2-NORM 
          0                 1           2             4    7     1       0.1862885960E-01       4    7    1         0.9771092381E+00      0.2407491264E+01
          0                 2           2             4    7     1      -0.1812086945E-02       4    7    1        -0.9771138614E-01      0.2407459687E+00
          0                 3           2             4    7     1       0.1233963359E-03       4    7    1         0.6839795614E-02      0.1685190564E-01
          0                 4           1             4    7     1      -0.4910055845E-05       4    7    1        -0.2797480508E-03      0.6892481075E-03

    ------------------------------------------------
       NWT REQUIRED            4 OUTER ITERATIONS 
       AND A TOTAL OF          7 INNER ITERATIONS.
    ------------------------------------------------

 NO OUTPUT CONTROL FOR STRESS PERIOD   38   TIME STEP   29
 
 SOLVING FOR HEAD 
                                                   Max.-Head-Change                         Max.-Flux-Residual
  Residual-Control   Outer-Iter.   Inner-Iter.     Column Row Layer    Maximum-Head-Change  Column Row Layer    Maximum-Flux-Residual          L2-NORM 
          0                 1           2             4    7     1       0.1845448523E-01       4    7    1         0.9679169795E+00      0.2390294963E+01
          0                 2           2             4    7     1      -0.1795124929E-02       4    7    1        -0.9679215054E-01      0.2390264832E+00
          0                 3           2             4    7     1       0.1222412868E-03       4    7    1         0.6775449187E-02      0.1673155273E-01
          0                 4           1             4    7     1      -0.4864095640E-05       4    7    1        -0.2771162754E-03      0.6842869800E-03

    ------------------------------------------------
       NWT REQUIRED            4 OUTER ITERATIONS 
       AND A TOTAL OF          7 INNER ITERATIONS.
    ------------------------------------------------

 NO OUTPUT CONTROL FOR STRESS PERIOD   38   TIME STEP   30



 STREAM LISTING     PERIOD     38   STEP       30

 LAYER ROW COL. STREAM  RCH.  FLOW INTO     FLOW TO   FLOW OUT OF   OVRLND.     DIRECT     STREAM       STREAM     STREAM     STREAM   STREAMBED  STREAMBED
                SEG.NO.  NO.  STRM. RCH.    AQUIFER    STRM. RCH.    RUNOFF     PRECIP       ET          HEAD       DEPTH      WIDTH   CONDCTNC.   GRADIENT

   1    1    1     1     1    1.4250E+01  1.8168E-01   1.4068E+01  0.000E+00  0.000E+00  0.000E+00  1.09404E+03  9.953E-01  1.011E+01  4.547E-02  1.332E+00
   1    2    2     1     2    1.4068E+01  2.7999E-01   1.3788E+01  0.000E+00  0.000E+00  0.000E+00  1.08905E+03  9.906E-01  1.002E+01  7.016E-02  1.330E+00
   1    3    3     1     3    1.3788E+01  2.3744E-01   1.3550E+01  0.000E+00  0.000E+00  0.000E+00  1.08340E+03  9.852E-01  9.930E+00  5.958E-02  1.328E+00
   1    3    4     1     4    1.3550E+01  2.1755E-01   1.3333E+01  0.000E+00  0.000E+00  0.000E+00  1.07839E+03  9.805E-01  9.847E+00  5.465E-02  1.327E+00
   1    4    5     2     1    1.1333E+01  2.9214E-01   1.1041E+01  0.000E+00  0.000E+00  0.000E+00  1.07268E+03  7.454E-01  1.200E+01  7.800E-02  1.248E+00
   1    5    6     2     2    1.1041E+01  2.2410E-01   1.0817E+01  0.000E+00  0.000E+00  0.000E+00  1.06724E+03  7.350E-01  1.200E+01  6.000E-02  1.245E+00
   1    6    6     2     3    1.0817E+01  2.2356E-01   1.0593E+01  0.000E+00  0.000E+00  0.000E+00  1.06252E+03  7.259E-01  1.200E+01  6.000E-02  1.242E+00
   1    7    6     2     4    1.0593E+01  2.2301E-01   1.0370E+01  0.000E+00  0.000E+00  0.000E+00  1.05779E+03  7.168E-01  1.200E+01  6.000E-02  1.239E+00
   1    8    6     2     5    1.0370E+01  2.2246E-01   1.0148E+01  0.000E+00  0.000E+00  0.000E+00  1.05307E+03  7.076E-01  1.200E+01  6.000E-02  1.236E+00
   1    3    5     3     1    2.0000E+00  2.8252E-01   1.7175E+00  0.000E+00  0.000E+00  0.000E+00  1.07555E+03  1.909E+00  9.636E+00  7.227E-02  1.955E+00
   1    3    6     3     2    1.7175E+00  2.4905E-01   1.4684E+00  0.000E+00  0.000E+00  0.000E+00  1.07264E+03  1.727E+00  8.909E+00  6.682E-02  1.864E+00
   1    3    7     3     3    1.4684E+00  1.9718E-01   1.2712E+00  0.000E+00  0.000E+00  0.000E+00  1.06987E+03  1.555E+00  8.218E+00  5.547E-02  1.777E+00
   1    4    8     3     4    1.2712E+00  2.2567E-01   1.0456E+00  0.000E+00  0.000E+00  0.000E+00  1.06682E+03  1.364E+00  7.455E+00  6.709E-02  1.682E+00
   1    5    8     3     5    1.0456E+00  1.5790E-01   8.8768E-01  0.000E+00  0.000E+00  0.000E+00  1.06362E+03  1.164E+00  6.655E+00  4.991E-02  1.582E+00
   1    6    8     3     6    8.8768E-01  5.5980E-02   8.3170E-01  0.000E+00  0.000E+00  0.000E+00  1.06158E+03  1.036E+00  6.145E+00  1.844E-02  1.518E+00
   1    5   10     4     1    1.0000E+01  9.0919E-02   9.9091E+00  0.000E+00  0.000E+00  0.000E+00  1.07836E+03  6.368E-01  1.000E+01  2.500E-02  1.212E+00
   1    5    9     4     2    9.9091E+00  1.8158E-01   9.7275E+00  0.000E+00  0.000E+00  0.000E+00  1.07154E+03  6.315E-01  1.000E+01  5.000E-02  1.211E+00
   1    6    8     4     3    9.7275E+00  1.2689E-01   9.6006E+00  0.000E+00  0.000E+00  0.000E+00  1.06381E+03  6.256E-01  1.000E+01  3.500E-02  1.209E+00
   1    6    8     5     1    1.0432E+01  2.2686E-01   1.0205E+01  0.000E+00  0.000E+00  0.000E+00  1.05868E+03  6.790E-01  1.542E+01  6.166E-02  1.226E+00
   1    7    7     5     2    1.0205E+01  2.7894E-01   9.9265E+00  0.000E+00  0.000E+00  0.000E+00  1.05417E+03  6.732E-01  1.519E+01  7.594E-02  1.224E+00
   1    8    7     5     3    9.9265E+00  1.9221E-01   9.7343E+00  0.000E+00  0.000E+00  0.000E+00  1.04992E+03  6.676E-01  1.497E+01  5.241E-02  1.223E+00
   1    8    6     5     4    9.7343E+00  1.3577E-01   9.5985E+00  0.000E+00  0.000E+00  0.000E+00  1.04691E+03  6.637E-01  1.482E+01  3.706E-02  1.221E+00
   1    9    6     6     1    1.9746E+01  2.4336E-01   1.9503E+01  0.000E+00  0.000E+00  0.000E+00  1.04378E+03  1.056E+00  1.200E+01  6.000E-02  1.352E+00
   1   10    7     6     2    1.9503E+01  2.4289E-01   1.9260E+01  0.000E+00  0.000E+00  0.000E+00  1.03923E+03  1.048E+00  1.200E+01  6.000E-02  1.349E+00
   1   11    7     6     3    1.9260E+01  2.4241E-01   1.9018E+01  0.000E+00  0.000E+00  0.000E+00  1.03468E+03  1.040E+00  1.200E+01  6.000E-02  1.347E+00
   1   12    7     6     4    1.9018E+01  2.4194E-01   1.8776E+01  0.000E+00  0.000E+00  0.000E+00  1.03012E+03  1.032E+00  1.200E+01  6.000E-02  1.344E+00
   1   13    7     6     5    1.8776E+01  5.6505E-03   1.8770E+01  0.000E+00  0.000E+00  0.000E+00  1.02694E+03  1.028E+00  1.200E+01  2.400E-02  7.848E-02
   1   14    9     7     1    1.5000E+02  1.3642E+00   1.4864E+02  0.000E+00  0.000E+00  0.000E+00  1.03987E+03  2.288E+00  5.529E+01  5.593E-01  8.130E-01
   1   13    8     7     2    1.4864E+02  1.9427E+00   1.4669E+02  0.000E+00  0.000E+00  0.000E+00  1.03478E+03  2.279E+00  5.525E+01  6.148E-01  1.053E+00
   1   13    7     7     3    1.4669E+02  1.6677E+00   1.4503E+02  0.000E+00  0.000E+00  0.000E+00  1.02969E+03  2.269E+00  5.521E+01  5.584E-01  9.956E-01
   1   13    6     8     1    1.6380E+02  1.0871E+00   1.6271E+02  0.000E+00  0.000E+00  0.000E+00  1.02478E+03  2.908E+00  4.216E+01  4.296E-01  8.434E-01
   1   13    5     8     2    1.6271E+02  3.4110E-01   1.6237E+02  0.000E+00  0.000E+00  0.000E+00  1.01853E+03  2.903E+00  4.209E+01  4.289E-01  2.651E-01
   1   13    4     8     3    1.6237E+02 -1.8531E+00   1.6422E+02  0.000E+00  0.000E+00  0.000E+00  1.01228E+03  2.908E+00  4.217E+01  4.297E+00 -1.438E-01
   1   13    3     8     4    1.6422E+02 -3.3774E+00   1.6760E+02  0.000E+00  0.000E+00  0.000E+00  1.00605E+03  2.925E+00  4.242E+01  4.323E+00 -2.605E-01
   1   13    2     8     5    1.6760E+02 -2.5251E+00   1.7012E+02  0.000E+00  0.000E+00  0.000E+00  9.99820E+02  2.945E+00  4.270E+01  4.351E+00 -1.934E-01
   1   13    1     8     6    1.7012E+02 -1.9805E+00   1.7210E+02  0.000E+00  0.000E+00  0.000E+00  9.94834E+02  2.959E+00  4.291E+01  2.624E+00 -2.516E-01
   1    8    6     9     1    0.0000E+00  0.0000E+00   0.0000E+00  0.000E+00  0.000E+00  0.000E+00  1.07875E+03  0.000E+00  4.000E+00  0.000E+00  1.000E+00
   1    8    5     9     2    0.0000E+00  0.0000E+00   0.0000E+00  0.000E+00  0.000E+00  0.000E+00  1.07825E+03  0.000E+00  4.000E+00  0.000E+00  1.000E+00





UNSATURATED ZONE PACKAGE VOLUMETRIC BUDGET FOR  TIME STEP    30 STRESS PERIOD   38
  ------------------------------------------------------------------------------



     CUMULATIVE VOLUMES      L**3       RATES FOR THIS TIME STEP      L**3/T
     ------------------                 ------------------------

           IN:                                      IN:
           ---                                      ---
        INFILTRATION =  1286321245.3222          INFILTRATION =           0.8475

          OUT:                                     OUT:
          ----                                     ----
              UZF ET =  1284745051.1837                UZF ET =           0.7500
        UZF RECHARGE =       73224.0000          UZF RECHARGE =       0.0000E+00

            IN - OUT =     1502970.1385              IN - OUT =       9.7500E-02

          STORAGE:                                 STORAGE:
          --------                                 --------
      STORAGE CHANGE =     1502970.2359        STORAGE CHANGE =       9.7500E-02

 PERCENT DISCREPANCY IS DIFFERENCE BETWEEN IN-OUT MINUS CHANGE IN STORAGE
 DIVIDED BY THE AVERAGE OF IN AND OUT TIMES 100

 PERCENT DISCREPANCY =           0.00     PERCENT DISCREPANCY =           0.00






1
  VOLUMETRIC BUDGET FOR AGRICULTURAL FIELDS AT  END OF TIME STEP   30, STRESS PERIOD  38
  ------------------------------------------------------------------------------

     CUMULATIVE VOLUMES      L**3       RATES FOR THIS TIME STEP      L**3/T
     ------------------                 ------------------------

           IN:                                      IN:
           ---                                      ---
               AG WELLS  =  1203775104.0000                 AG WELLS  =           0.0000
      DIVERSION SEGMENTS =           0.0000        DIVERSION SEGMENTS =           0.0000
       IRRIGATION PONDS  =           0.0000         IRRIGATION PONDS  =           0.0000
           GW IRRIGATION =           0.0000             GW IRRIGATION =           0.0000
           SW IRRIGATION =           0.0000             SW IRRIGATION =           0.0000
        SYSTEM LOSSES GW =           0.0000          SYSTEM LOSSES GW =           0.0000
        SYSTEM LOSSES SW =           0.0000          SYSTEM LOSSES SW =           0.0000

                TOTAL IN =  1203775104.0000                  TOTAL IN =           0.0000

          OUT:                                     OUT:
          ----                                     ----
               AG WELLS  =           0.0000                 AG WELLS  =           0.0000
      DIVERSION SEGMENTS =           0.0000        DIVERSION SEGMENTS =           0.0000
       IRRIGATION PONDS  =           0.0000         IRRIGATION PONDS  =           0.0000
           GW IRRIGATION =  1203775104.0000             GW IRRIGATION =           0.0000
           SW IRRIGATION =           0.0000             SW IRRIGATION =           0.0000
        SYSTEM LOSSES GW =           0.0000          SYSTEM LOSSES GW =           0.0000
        SYSTEM LOSSES SW =           0.0000          SYSTEM LOSSES SW =           0.0000

               TOTAL OUT =  1203775104.0000                 TOTAL OUT =           0.0000

                IN - OUT =           0.0000                  IN - OUT =           0.0000

     PERCENT DISCREPANCY =           0.00         PERCENT DISCREPANCY =           0.00



1
  VOLUMETRIC BUDGET FOR ENTIRE MODEL AT END OF TIME STEP   30, STRESS PERIOD  38
  ------------------------------------------------------------------------------

     CUMULATIVE VOLUMES      L**3       RATES FOR THIS TIME STEP      L**3/T
     ------------------                 ------------------------

           IN:                                      IN:
           ---                                      ---
             STORAGE     =  1663190016.0000               STORAGE     =           6.4814
       CONSTANT HEAD     =           0.0000         CONSTANT HEAD     =           0.0000
     HEAD DEP BOUNDS     =    27876160.0000       HEAD DEP BOUNDS     =           0.2877
      STREAM LEAKAGE     =  1196521728.0000        STREAM LEAKAGE     =          11.8824
        UZF RECHARGE     =       73223.9531          UZF RECHARGE     =           0.0000
               GW ET     =           0.0000                 GW ET     =           0.0000
     SURFACE LEAKAGE     =           0.0000       SURFACE LEAKAGE     =           0.0000
           AG WELLS      =           0.0000             AG WELLS      =           0.0000

                TOTAL IN =  2887661056.0000                  TOTAL IN =          18.6515

          OUT:                                     OUT:
          ----                                     ----
             STORAGE     =   649054208.0000               STORAGE     =           8.6270
       CONSTANT HEAD     =           0.0000         CONSTANT HEAD     =           0.0000
     HEAD DEP BOUNDS     =    28451422.0000       HEAD DEP BOUNDS     =           0.2884
      STREAM LEAKAGE     =   998011776.0000        STREAM LEAKAGE     =           9.7362
        UZF RECHARGE     =           0.0000          UZF RECHARGE     =           0.0000
               GW ET     =     8372419.5000                 GW ET     =           0.0000
     SURFACE LEAKAGE     =           0.0000       SURFACE LEAKAGE     =           0.0000
           AG WELLS      =  1203775104.0000             AG WELLS      =           0.0000

               TOTAL OUT =  2887665152.0000                 TOTAL OUT =          18.6515

                IN - OUT =       -4096.0000                  IN - OUT =       1.1444E-05

     PERCENT DISCREPANCY =          -0.00         PERCENT DISCREPANCY =           0.00






         TIME SUMMARY AT END OF TIME STEP   30 IN STRESS PERIOD   38
                    SECONDS     MINUTES      HOURS       DAYS        YEARS
                    -----------------------------------------------------------
   TIME STEP LENGTH  87667.      1461.1      24.352      1.0147     2.77799E-03
 STRESS PERIOD TIME 2.63000E+06  43833.      730.56      30.440     8.33397E-02
         TOTAL TIME 9.73959E+07 1.62326E+06  27054.      1127.3      3.0863    
1
1
                            STRESS PERIOD NO.   39, LENGTH =   2630000.    
                            -----------------------------------------------

                              NUMBER OF TIME STEPS =    30

                               MULTIPLIER FOR DELT =     1.000

                            INITIAL TIME STEP SIZE =   87666.66    

 REUSING NON-PARAMETER GHB CELLS FROM LAST STRESS PERIOD

      2 GHB CELLS

 REUSING STREAM SEGMENT DATA FROM LAST STRESS PERIOD



            AREAL INFILTRATION RATE
 READING ON UNIT   19 WITH FORMAT: (FREE)              

            1           2           3           4           5           6           7           8           9          10
 ........................................................................................................................
   1   1.0000E-10  2.0000E-10   0.000       0.000       0.000       0.000       0.000       0.000       0.000       0.000    
   2   2.0000E-10  1.0000E-10  2.0000E-10   0.000       0.000      8.0000E-10  8.0000E-10  5.0000E-10   0.000       0.000    
   3    0.000      5.0000E-10  1.0000E-10  1.0000E-10  8.0000E-10  8.0000E-10  5.0000E-10  5.0000E-10   0.000       0.000    
   4   8.0000E-10  5.0000E-10  1.0000E-10  1.0000E-10  1.0000E-10  1.0000E-10  1.0000E-10  1.0000E-10  2.0000E-10   0.000    
   5   8.0000E-10  5.0000E-10  1.0000E-10  1.0000E-10  1.0000E-10  1.0000E-10  1.0000E-10  1.0000E-10  1.0000E-10  1.0000E-10
   6   8.0000E-10  5.0000E-10  5.0000E-10  2.0000E-10  2.0000E-10  1.0000E-10  1.0000E-10  1.0000E-10  1.0000E-10  5.0000E-10
   7   8.0000E-10  5.0000E-10  5.0000E-10  2.0000E-10  2.0000E-10  1.0000E-10  1.0000E-10  2.0000E-10  2.0000E-10   0.000    
   8    0.000      5.0000E-10  5.0000E-10  2.0000E-10  2.0000E-10  1.0000E-10  1.0000E-10  2.0000E-10  5.0000E-10   0.000    
   9    0.000      5.0000E-10  5.0000E-10  2.0000E-10  2.0000E-10  1.0000E-10  1.0000E-10  2.0000E-10  5.0000E-10   0.000    
  10    0.000      5.0000E-10  5.0000E-10  2.0000E-10  2.0000E-10  1.0000E-10  1.0000E-10  2.0000E-10  5.0000E-10  8.0000E-10
  11    0.000      1.0000E-10  1.0000E-10  1.0000E-10  1.0000E-10  1.0000E-10  1.0000E-10  2.0000E-10  5.0000E-10   0.000    
  12   1.0000E-10  1.0000E-10  1.0000E-10  1.0000E-10  1.0000E-10  1.0000E-10  1.0000E-10  1.0000E-10  2.0000E-10   0.000    
  13   1.0000E-10  1.0000E-10  2.0000E-10  2.0000E-10  2.0000E-10  2.0000E-10  2.0000E-10  1.0000E-10  1.0000E-10   0.000    
  14    0.000      2.0000E-10  5.0000E-10  5.0000E-10  5.0000E-10  5.0000E-10  5.0000E-10  2.0000E-10  1.0000E-10   0.000    
  15    0.000       0.000      8.0000E-10  8.0000E-10  8.0000E-10  8.0000E-10   0.000       0.000       0.000       0.000    

                  ET RATE =  5.000000E-10

 USING ET EXTINCTION DEPTH FROM PREVIOUS STRESS PERIOD. CURRENT PERIOD IS:      39

 USING EXTINCTION WATER CONTENT FROM PREVIOUS STRESS PERIOD. CURRENT PERIOD IS:      39

 USING AIR ENTRY PRESSURE FROM PREVIOUS STRESS PERIOD. CURRENT PERIOD IS:      39

 USING ROOT PRESSURE HEAD FROM PREVIOUS STRESS PERIOD. CURRENT PERIOD IS:      39

 USING ROOT ACTIVITY FROM PREVIOUS STRESS PERIOD. CURRENT PERIOD IS:      39

 PROCESSING AG STRESS PERIOD DATA

 READING AG STRESS PERIOD DATA

 READING IRRIGATION SEGMENT

 READING IRRIGATION WELL

 READING SUPPLEMENTAL WELL

 NO IRRPOND OR REUSING IRRPOND DATA FROM LAST STRESS PERIOD

 END PROCESSING AG STRESS PERIOD DATA OPTIONS
 
 SOLVING FOR HEAD 
                                                   Max.-Head-Change                         Max.-Flux-Residual
  Residual-Control   Outer-Iter.   Inner-Iter.     Column Row Layer    Maximum-Head-Change  Column Row Layer    Maximum-Flux-Residual          L2-NORM 
          0                 1           2             4    7     1       0.1828269474E-01       4    7    1         0.9588612644E+00      0.2373323233E+01
          0                 2           2             4    7     1      -0.1778414257E-02       4    7    1        -0.9588656954E-01      0.2373293967E+00
          0                 3           1             4    7     1       0.1211033572E-03       4    7    1         0.6712058587E-02      0.1661274357E-01
          0                 4           1             4    7     1      -0.4818819869E-05       4    7    1        -0.2745236004E-03      0.6794390696E-03

    ------------------------------------------------
       NWT REQUIRED            4 OUTER ITERATIONS 
       AND A TOTAL OF          6 INNER ITERATIONS.
    ------------------------------------------------

 NO OUTPUT CONTROL FOR STRESS PERIOD   39   TIME STEP    1
 
 SOLVING FOR HEAD 
                                                   Max.-Head-Change                         Max.-Flux-Residual
  Residual-Control   Outer-Iter.   Inner-Iter.     Column Row Layer    Maximum-Head-Change  Column Row Layer    Maximum-Flux-Residual          L2-NORM 
          0                 1           2             4    7     1       0.1811329553E-01       4    7    1         0.9499322120E+00      0.2356564006E+01
          0                 2           2             4    7     1      -0.1761992215E-02       4    7    1        -0.9501817408E-01      0.2356604740E+00
          0                 3           1             4    7     1       0.1199850732E-03       4    7    1         0.6651270642E-02      0.1649592613E-01
          0                 4           1             4    7     1      -0.4774322246E-05       4    7    1        -0.2720373584E-03      0.6746415924E-03

    ------------------------------------------------
       NWT REQUIRED            4 OUTER ITERATIONS 
       AND A TOTAL OF          6 INNER ITERATIONS.
    ------------------------------------------------

 NO OUTPUT CONTROL FOR STRESS PERIOD   39   TIME STEP    2
 
 SOLVING FOR HEAD 
                                                   Max.-Head-Change                         Max.-Flux-Residual
  Residual-Control   Outer-Iter.   Inner-Iter.     Column Row Layer    Maximum-Head-Change  Column Row Layer    Maximum-Flux-Residual          L2-NORM 
          0                 1           2             4    7     1       0.1794254305E-01       4    7    1         0.9411314659E+00      0.2337810795E+01
          0                 2           2             4    7     1      -0.1745326946E-02       4    7    1        -0.9411360242E-01      0.2337811537E+00
          0                 3           1             4    7     1       0.1188502319E-03       4    7    1         0.6587950703E-02      0.1636465448E-01
          0                 4           1             4    7     1      -0.4729165517E-05       4    7    1        -0.2694475638E-03      0.6693160851E-03

    ------------------------------------------------
       NWT REQUIRED            4 OUTER ITERATIONS 
       AND A TOTAL OF          6 INNER ITERATIONS.
    ------------------------------------------------

 NO OUTPUT CONTROL FOR STRESS PERIOD   39   TIME STEP    3
 
 SOLVING FOR HEAD 
                                                   Max.-Head-Change                         Max.-Flux-Residual
  Residual-Control   Outer-Iter.   Inner-Iter.     Column Row Layer    Maximum-Head-Change  Column Row Layer    Maximum-Flux-Residual          L2-NORM 
          0                 1           2             4    7     1       0.1777446262E-01       4    7    1         0.9322591911E+00      0.2320650960E+01
          0                 2           2             4    7     1      -0.1728977144E-02       4    7    1        -0.9322636421E-01      0.2320652913E+00
          0                 3           1             4    7     1       0.1177368725E-03       4    7    1         0.6525844097E-02      0.1624455876E-01
          0                 4           1             4    7     1      -0.4684864071E-05       4    7    1        -0.2669074138E-03      0.6643847579E-03

    ------------------------------------------------
       NWT REQUIRED            4 OUTER ITERATIONS 
       AND A TOTAL OF          6 INNER ITERATIONS.
    ------------------------------------------------

 NO OUTPUT CONTROL FOR STRESS PERIOD   39   TIME STEP    4
 
 SOLVING FOR HEAD 
                                                   Max.-Head-Change                         Max.-Flux-Residual
  Residual-Control   Outer-Iter.   Inner-Iter.     Column Row Layer    Maximum-Head-Change  Column Row Layer    Maximum-Flux-Residual          L2-NORM 
          0                 1           2             4    7     1       0.1760906564E-01       4    7    1         0.9235298049E+00      0.2304473555E+01
          0                 2           2             4    7     1      -0.1712888374E-02       4    7    1        -0.9235341521E-01      0.2304475683E+00
          0                 3           1             4    7     1       0.1166412884E-03       4    7    1         0.6464737741E-02      0.1613131216E-01
          0                 4           1             4    7     1      -0.4641269739E-05       4    7    1        -0.2644081540E-03      0.6598478599E-03

    ------------------------------------------------
       NWT REQUIRED            4 OUTER ITERATIONS 
       AND A TOTAL OF          6 INNER ITERATIONS.
    ------------------------------------------------

 NO OUTPUT CONTROL FOR STRESS PERIOD   39   TIME STEP    5
 
 SOLVING FOR HEAD 
                                                   Max.-Head-Change                         Max.-Flux-Residual
  Residual-Control   Outer-Iter.   Inner-Iter.     Column Row Layer    Maximum-Head-Change  Column Row Layer    Maximum-Flux-Residual          L2-NORM 
          0                 1           2             4    7     1       0.1744614946E-01       4    7    1         0.9149322435E+00      0.2288510277E+01
          0                 2           2             4    7     1      -0.1697040923E-02       4    7    1        -0.9149364895E-01      0.2288512393E+00
          0                 3           1             4    7     1       0.1155621372E-03       4    7    1         0.6404554166E-02      0.1601958059E-01
          0                 4           1             4    7     1      -0.4598329331E-05       4    7    1        -0.2619466557E-03      0.6552092989E-03

    ------------------------------------------------
       NWT REQUIRED            4 OUTER ITERATIONS 
       AND A TOTAL OF          6 INNER ITERATIONS.
    ------------------------------------------------

 NO OUTPUT CONTROL FOR STRESS PERIOD   39   TIME STEP    6
 
 SOLVING FOR HEAD 
                                                   Max.-Head-Change                         Max.-Flux-Residual
  Residual-Control   Outer-Iter.   Inner-Iter.     Column Row Layer    Maximum-Head-Change  Column Row Layer    Maximum-Flux-Residual          L2-NORM 
          0                 1           2             4    7     1       0.1728578880E-01       4    7    1         0.9064706160E+00      0.2272757043E+01
          0                 2           2             4    7     1      -0.1681442058E-02       4    7    1        -0.9064747641E-01      0.2272758885E+00
          0                 3           1             4    7     1       0.1144999137E-03       4    7    1         0.6345322164E-02      0.1590930359E-01
          0                 4           1             4    7     1      -0.4556062190E-05       4    7    1        -0.2595240448E-03      0.6507751669E-03

    ------------------------------------------------
       NWT REQUIRED            4 OUTER ITERATIONS 
       AND A TOTAL OF          6 INNER ITERATIONS.
    ------------------------------------------------

 NO OUTPUT CONTROL FOR STRESS PERIOD   39   TIME STEP    7
 
 SOLVING FOR HEAD 
                                                   Max.-Head-Change                         Max.-Flux-Residual
  Residual-Control   Outer-Iter.   Inner-Iter.     Column Row Layer    Maximum-Head-Change  Column Row Layer    Maximum-Flux-Residual          L2-NORM 
          0                 1           2             4    7     1       0.1712791982E-01       4    7    1         0.8981414881E+00      0.2257213835E+01
          0                 2           2             4    7     1      -0.1666085572E-02       4    7    1        -0.8981455413E-01      0.2257215390E+00
          0                 3           1             4    7     1       0.1134541954E-03       4    7    1         0.6287017672E-02      0.1580048612E-01
          0                 4           1             4    7     1      -0.4514452197E-05       4    7    1        -0.2571393889E-03      0.6462425540E-03

    ------------------------------------------------
       NWT REQUIRED            4 OUTER ITERATIONS 
       AND A TOTAL OF          6 INNER ITERATIONS.
    ------------------------------------------------

 NO OUTPUT CONTROL FOR STRESS PERIOD   39   TIME STEP    8
 
 SOLVING FOR HEAD 
                                                   Max.-Head-Change                         Max.-Flux-Residual
  Residual-Control   Outer-Iter.   Inner-Iter.     Column Row Layer    Maximum-Head-Change  Column Row Layer    Maximum-Flux-Residual          L2-NORM 
          0                 1           2             4    7     1       0.1697234748E-01       4    7    1         0.8899342414E+00      0.2241865822E+01
          0                 2           2             4    7     1      -0.1650952488E-02       4    7    1        -0.8899382024E-01      0.2241867052E+00
          0                 3           1             4    7     1       0.1124236899E-03       4    7    1         0.6229566360E-02      0.1569359171E-01
          0                 4           1             4    7     1      -0.4473447545E-05       4    7    1        -0.2547896404E-03      0.6610758049E-03

    ------------------------------------------------
       NWT REQUIRED            4 OUTER ITERATIONS 
       AND A TOTAL OF          6 INNER ITERATIONS.
    ------------------------------------------------

 NO OUTPUT CONTROL FOR STRESS PERIOD   39   TIME STEP    9
 
 SOLVING FOR HEAD 
                                                   Max.-Head-Change                         Max.-Flux-Residual
  Residual-Control   Outer-Iter.   Inner-Iter.     Column Row Layer    Maximum-Head-Change  Column Row Layer    Maximum-Flux-Residual          L2-NORM 
          0                 1           2             4    7     1       0.1681901681E-01       4    7    1         0.8818460707E+00      0.2226710734E+01
          0                 2           2             4    7     1      -0.1636037463E-02       4    7    1        -0.8818499421E-01      0.2226711380E+00
          0                 3           1             4    7     1       0.1114080335E-03       4    7    1         0.6172948608E-02      0.1558698769E-01
          0                 4           1             4    7     1      -0.4433033843E-05       4    7    1        -0.2524739764E-03      0.6375323640E-03

    ------------------------------------------------
       NWT REQUIRED            4 OUTER ITERATIONS 
       AND A TOTAL OF          6 INNER ITERATIONS.
    ------------------------------------------------

 NO OUTPUT CONTROL FOR STRESS PERIOD   39   TIME STEP   10
 
 SOLVING FOR HEAD 
                                                   Max.-Head-Change                         Max.-Flux-Residual
  Residual-Control   Outer-Iter.   Inner-Iter.     Column Row Layer    Maximum-Head-Change  Column Row Layer    Maximum-Flux-Residual          L2-NORM 
          0                 1           2             4    7     1       0.1666814638E-01       4    7    1         0.8738887469E+00      0.2211757378E+01
          0                 2           2             4    7     1      -0.1621361754E-02       4    7    1        -0.8738925313E-01      0.2211758304E+00
          0                 3           1             4    7     1       0.1104086733E-03       4    7    1         0.6117246784E-02      0.1548228160E-01
          0                 4           1             4    7     1      -0.4393268309E-05       4    7    1        -0.2501957686E-03      0.6332232755E-03

    ------------------------------------------------
       NWT REQUIRED            4 OUTER ITERATIONS 
       AND A TOTAL OF          6 INNER ITERATIONS.
    ------------------------------------------------

 NO OUTPUT CONTROL FOR STRESS PERIOD   39   TIME STEP   11
 
 SOLVING FOR HEAD 
                                                   Max.-Head-Change                         Max.-Flux-Residual
  Residual-Control   Outer-Iter.   Inner-Iter.     Column Row Layer    Maximum-Head-Change  Column Row Layer    Maximum-Flux-Residual          L2-NORM 
          0                 1           2             4    7     1       0.1651940207E-01       4    7    1         0.8660443627E+00      0.2196982258E+01
          0                 2           2             4    7     1      -0.1606892864E-02       4    7    1        -0.8660480625E-01      0.2196981885E+00
          0                 3           1             4    7     1       0.1094233964E-03       4    7    1         0.6062335556E-02      0.1537884848E-01
          0                 4           1             4    7     1      -0.4354063101E-05       4    7    1        -0.2479498798E-03      0.6289890542E-03

    ------------------------------------------------
       NWT REQUIRED            4 OUTER ITERATIONS 
       AND A TOTAL OF          6 INNER ITERATIONS.
    ------------------------------------------------

 NO OUTPUT CONTROL FOR STRESS PERIOD   39   TIME STEP   12
 
 SOLVING FOR HEAD 
                                                   Max.-Head-Change                         Max.-Flux-Residual
  Residual-Control   Outer-Iter.   Inner-Iter.     Column Row Layer    Maximum-Head-Change  Column Row Layer    Maximum-Flux-Residual          L2-NORM 
          0                 1           2             4    7     1       0.1637287471E-01       4    7    1         0.8583175249E+00      0.2182395658E+01
          0                 2           2             4    7     1      -0.1592639626E-02       4    7    1        -0.8583211427E-01      0.2182394819E+00
          0                 3           1             4    7     1       0.1084528049E-03       4    7    1         0.6008247168E-02      0.1527673485E-01
          0                 4           1             4    7     1      -0.4315441936E-05       4    7    1        -0.2457376636E-03      0.6248177728E-03

    ------------------------------------------------
       NWT REQUIRED            4 OUTER ITERATIONS 
       AND A TOTAL OF          6 INNER ITERATIONS.
    ------------------------------------------------

 NO OUTPUT CONTROL FOR STRESS PERIOD   39   TIME STEP   13
 
 SOLVING FOR HEAD 
                                                   Max.-Head-Change                         Max.-Flux-Residual
  Residual-Control   Outer-Iter.   Inner-Iter.     Column Row Layer    Maximum-Head-Change  Column Row Layer    Maximum-Flux-Residual          L2-NORM 
          0                 1           2             4    7     1       0.1622851263E-01       4    7    1         0.8507056324E+00      0.2167997213E+01
          0                 2           2             4    7     1      -0.1578597014E-02       4    7    1        -0.8507091704E-01      0.2167995715E+00
          0                 3           1             4    7     1       0.1074965564E-03       4    7    1         0.5954963425E-02      0.1517593795E-01
          0                 4           1             4    7     1      -0.4277392149E-05       4    7    1        -0.2435583547E-03      0.6206980295E-03

    ------------------------------------------------
       NWT REQUIRED            4 OUTER ITERATIONS 
       AND A TOTAL OF          6 INNER ITERATIONS.
    ------------------------------------------------

 NO OUTPUT CONTROL FOR STRESS PERIOD   39   TIME STEP   14
 
 SOLVING FOR HEAD 
                                                   Max.-Head-Change                         Max.-Flux-Residual
  Residual-Control   Outer-Iter.   Inner-Iter.     Column Row Layer    Maximum-Head-Change  Column Row Layer    Maximum-Flux-Residual          L2-NORM 
          0                 1           2             4    7     1       0.1608626026E-01       4    7    1         0.8432060062E+00      0.2153768449E+01
          0                 2           2             4    7     1      -0.1564759623E-02       4    7    1        -0.8432094669E-01      0.2153766318E+00
          0                 3           1             4    7     1       0.1065542822E-03       4    7    1         0.5902465542E-02      0.1507632375E-01
          0                 4           1             4    7     1      -0.4239898083E-05       4    7    1        -0.2414111821E-03      0.6166250489E-03

    ------------------------------------------------
       NWT REQUIRED            4 OUTER ITERATIONS 
       AND A TOTAL OF          6 INNER ITERATIONS.
    ------------------------------------------------

 NO OUTPUT CONTROL FOR STRESS PERIOD   39   TIME STEP   15
 
 SOLVING FOR HEAD 
                                                   Max.-Head-Change                         Max.-Flux-Residual
  Residual-Control   Outer-Iter.   Inner-Iter.     Column Row Layer    Maximum-Head-Change  Column Row Layer    Maximum-Flux-Residual          L2-NORM 
          0                 1           2             4    7     1       0.1594593839E-01       4    7    1         0.8358084544E+00      0.2139711702E+01
          0                 2           2             4    7     1      -0.1551110019E-02       4    7    1        -0.8358118398E-01      0.2139709131E+00
          0                 3           1             4    7     1       0.1056247961E-03       4    7    1         0.5850682199E-02      0.1497791915E-01
          0                 4           1             4    7     1      -0.4202912996E-05       4    7    1        -0.2392932581E-03      0.6125917812E-03

    ------------------------------------------------
       NWT REQUIRED            4 OUTER ITERATIONS 
       AND A TOTAL OF          6 INNER ITERATIONS.
    ------------------------------------------------

 NO OUTPUT CONTROL FOR STRESS PERIOD   39   TIME STEP   16
 
 SOLVING FOR HEAD 
                                                   Max.-Head-Change                         Max.-Flux-Residual
  Residual-Control   Outer-Iter.   Inner-Iter.     Column Row Layer    Maximum-Head-Change  Column Row Layer    Maximum-Flux-Residual          L2-NORM 
          0                 1           2             4    7     1       0.1580777309E-01       4    7    1         0.8285256183E+00      0.2125834347E+01
          0                 2           2             4    7     1      -0.1537670194E-02       4    7    1        -0.8285289303E-01      0.2125831258E+00
          0                 3           1             4    7     1       0.1047095948E-03       4    7    1         0.5799701881E-02      0.1488077334E-01
          0                 4           1             4    7     1      -0.4166496294E-05       4    7    1        -0.2372081519E-03      0.6086215428E-03

    ------------------------------------------------
       NWT REQUIRED            4 OUTER ITERATIONS 
       AND A TOTAL OF          6 INNER ITERATIONS.
    ------------------------------------------------

 NO OUTPUT CONTROL FOR STRESS PERIOD   39   TIME STEP   17
 
 SOLVING FOR HEAD 
                                                   Max.-Head-Change                         Max.-Flux-Residual
  Residual-Control   Outer-Iter.   Inner-Iter.     Column Row Layer    Maximum-Head-Change  Column Row Layer    Maximum-Flux-Residual          L2-NORM 
          0                 1           2             4    7     1       0.1567144558E-01       4    7    1         0.8213399738E+00      0.2112121533E+01
          0                 2           2             4    7     1      -0.1524409140E-02       4    7    1        -0.8213432145E-01      0.2112117573E+00
          0                 3           1             4    7     1       0.1038065671E-03       4    7    1         0.5749401909E-02      0.1478475509E-01
          0                 4           1             4    7     1      -0.4130564049E-05       4    7    1        -0.2351508854E-03      0.6046888253E-03

    ------------------------------------------------
       NWT REQUIRED            4 OUTER ITERATIONS 
       AND A TOTAL OF          6 INNER ITERATIONS.
    ------------------------------------------------

 NO OUTPUT CONTROL FOR STRESS PERIOD   39   TIME STEP   18
 
 SOLVING FOR HEAD 
                                                   Max.-Head-Change                         Max.-Flux-Residual
  Residual-Control   Outer-Iter.   Inner-Iter.     Column Row Layer    Maximum-Head-Change  Column Row Layer    Maximum-Flux-Residual          L2-NORM 
          0                 1           2             4    7     1       0.1553718401E-01       4    7    1         0.8142642400E+00      0.2098577869E+01
          0                 2           2             4    7     1      -0.1511349047E-02       4    7    1        -0.8142674114E-01      0.2098573868E+00
          0                 3           1             4    7     1       0.1029172244E-03       4    7    1         0.5699871351E-02      0.1468996473E-01
          0                 4           1             4    7     1      -0.4095176012E-05       4    7    1        -0.2331250751E-03      0.6008106493E-03

    ------------------------------------------------
       NWT REQUIRED            4 OUTER ITERATIONS 
       AND A TOTAL OF          6 INNER ITERATIONS.
    ------------------------------------------------

 NO OUTPUT CONTROL FOR STRESS PERIOD   39   TIME STEP   19
 
 SOLVING FOR HEAD 
                                                   Max.-Head-Change                         Max.-Flux-Residual
  Residual-Control   Outer-Iter.   Inner-Iter.     Column Row Layer    Maximum-Head-Change  Column Row Layer    Maximum-Flux-Residual          L2-NORM 
          0                 1           2             4    7     1       0.1540467075E-01       4    7    1         0.8072809972E+00      0.2085189327E+01
          0                 2           2             4    7     1      -0.1498459021E-02       4    7    1        -0.8072841012E-01      0.2085184811E+00
          0                 3           1             4    7     1       0.1020394623E-03       4    7    1         0.5650988221E-02      0.1459623412E-01
          0                 4           1             4    7     1      -0.4060248946E-05       4    7    1        -0.2311257506E-03      0.5969789805E-03

    ------------------------------------------------
       NWT REQUIRED            4 OUTER ITERATIONS 
       AND A TOTAL OF          6 INNER ITERATIONS.
    ------------------------------------------------

 NO OUTPUT CONTROL FOR STRESS PERIOD   39   TIME STEP   20
 
 SOLVING FOR HEAD 
                                                   Max.-Head-Change                         Max.-Flux-Residual
  Residual-Control   Outer-Iter.   Inner-Iter.     Column Row Layer    Maximum-Head-Change  Column Row Layer    Maximum-Flux-Residual          L2-NORM 
          0                 1           2             4    7     1       0.1527413896E-01       4    7    1         0.8004030268E+00      0.2071964588E+01
          0                 2           2             4    7     1      -0.1485761739E-02       4    7    1        -0.8004060652E-01      0.2071959512E+00
          0                 3           1             4    7     1       0.1011748251E-03       4    7    1         0.5602842003E-02      0.1450364988E-01
          0                 4           1             4    7     1      -0.4025843983E-05       4    7    1        -0.2291565540E-03      0.5932005502E-03

    ------------------------------------------------
       NWT REQUIRED            4 OUTER ITERATIONS 
       AND A TOTAL OF          6 INNER ITERATIONS.
    ------------------------------------------------

 NO OUTPUT CONTROL FOR STRESS PERIOD   39   TIME STEP   21
 
 SOLVING FOR HEAD 
                                                   Max.-Head-Change                         Max.-Flux-Residual
  Residual-Control   Outer-Iter.   Inner-Iter.     Column Row Layer    Maximum-Head-Change  Column Row Layer    Maximum-Flux-Residual          L2-NORM 
          0                 1           2             4    7     1       0.1514527180E-01       4    7    1         0.7936131672E+00      0.2058894496E+01
          0                 2           2             4    7     1      -0.1473226384E-02       4    7    1        -0.7936161419E-01      0.2058888976E+00
          0                 3           1             4    7     1       0.1003212147E-03       4    7    1         0.5555312575E-02      0.1441215285E-01
          0                 4           1             4    7     1      -0.3991878118E-05       4    7    1        -0.2272125994E-03      0.5894591734E-03

    ------------------------------------------------
       NWT REQUIRED            4 OUTER ITERATIONS 
       AND A TOTAL OF          6 INNER ITERATIONS.
    ------------------------------------------------

 NO OUTPUT CONTROL FOR STRESS PERIOD   39   TIME STEP   22
 
 SOLVING FOR HEAD 
                                                   Max.-Head-Change                         Max.-Flux-Residual
  Residual-Control   Outer-Iter.   Inner-Iter.     Column Row Layer    Maximum-Head-Change  Column Row Layer    Maximum-Flux-Residual          L2-NORM 
          0                 1           2             4    7     1       0.1501830971E-01       4    7    1         0.7869242413E+00      0.2045981470E+01
          0                 2           2             4    7     1      -0.1460876343E-02       4    7    1        -0.7869271538E-01      0.2045975644E+00
          0                 3           1             4    7     1       0.9948022380E-04       4    7    1         0.5508489697E-02      0.1432176538E-01

    ------------------------------------------------
       NWT REQUIRED            3 OUTER ITERATIONS 
       AND A TOTAL OF          5 INNER ITERATIONS.
    ------------------------------------------------

 NO OUTPUT CONTROL FOR STRESS PERIOD   39   TIME STEP   23
 
 SOLVING FOR HEAD 
                                                   Max.-Head-Change                         Max.-Flux-Residual
  Residual-Control   Outer-Iter.   Inner-Iter.     Column Row Layer    Maximum-Head-Change  Column Row Layer    Maximum-Flux-Residual          L2-NORM 
          0                 1           2             4    7     1       0.1489302692E-01       4    7    1         0.7803243905E+00      0.2033219142E+01
          0                 2           2             4    7     1      -0.1448689654E-02       4    7    1        -0.7803272426E-01      0.2033211042E+00
          0                 3           1             4    7     1       0.9865035666E-04       4    7    1         0.5462290354E-02      0.1423222574E-01

    ------------------------------------------------
       NWT REQUIRED            3 OUTER ITERATIONS 
       AND A TOTAL OF          5 INNER ITERATIONS.
    ------------------------------------------------

 NO OUTPUT CONTROL FOR STRESS PERIOD   39   TIME STEP   24
 
 SOLVING FOR HEAD 
                                                   Max.-Head-Change                         Max.-Flux-Residual
  Residual-Control   Outer-Iter.   Inner-Iter.     Column Row Layer    Maximum-Head-Change  Column Row Layer    Maximum-Flux-Residual          L2-NORM 
          0                 1           2             4    7     1       0.1476929718E-01       4    7    1         0.7738067127E+00      0.2020601907E+01
          0                 2           2             4    7     1      -0.1436654037E-02       4    7    1        -0.7738095058E-01      0.2020595387E+00
          0                 3           1             4    7     1       0.9783077665E-04       4    7    1         0.5416666242E-02      0.1414409255E-01

    ------------------------------------------------
       NWT REQUIRED            3 OUTER ITERATIONS 
       AND A TOTAL OF          5 INNER ITERATIONS.
    ------------------------------------------------

 NO OUTPUT CONTROL FOR STRESS PERIOD   39   TIME STEP   25
 
 SOLVING FOR HEAD 
                                                   Max.-Head-Change                         Max.-Flux-Residual
  Residual-Control   Outer-Iter.   Inner-Iter.     Column Row Layer    Maximum-Head-Change  Column Row Layer    Maximum-Flux-Residual          L2-NORM 
          0                 1           2             4    7     1       0.1464736244E-01       4    7    1         0.7673841847E+00      0.2008134752E+01
          0                 2           2             4    7     1      -0.1424793026E-02       4    7    1        -0.7673869204E-01      0.2008127798E+00
          0                 3           1             4    7     1       0.9702308639E-04       4    7    1         0.5371708180E-02      0.1405680538E-01

    ------------------------------------------------
       NWT REQUIRED            3 OUTER ITERATIONS 
       AND A TOTAL OF          5 INNER ITERATIONS.
    ------------------------------------------------

 NO OUTPUT CONTROL FOR STRESS PERIOD   39   TIME STEP   26
 
 SOLVING FOR HEAD 
                                                   Max.-Head-Change                         Max.-Flux-Residual
  Residual-Control   Outer-Iter.   Inner-Iter.     Column Row Layer    Maximum-Head-Change  Column Row Layer    Maximum-Flux-Residual          L2-NORM 
          0                 1           2             4    7     1       0.1452717864E-01       4    7    1         0.7610547243E+00      0.1995808418E+01
          0                 2           2             4    7     1      -0.1413102336E-02       4    7    1        -0.7610574041E-01      0.1995801242E+00
          0                 3           1             4    7     1       0.9622699430E-04       4    7    1         0.5327401585E-02      0.1397054305E-01

    ------------------------------------------------
       NWT REQUIRED            3 OUTER ITERATIONS 
       AND A TOTAL OF          5 INNER ITERATIONS.
    ------------------------------------------------

 NO OUTPUT CONTROL FOR STRESS PERIOD   39   TIME STEP   27
 
 SOLVING FOR HEAD 
                                                   Max.-Head-Change                         Max.-Flux-Residual
  Residual-Control   Outer-Iter.   Inner-Iter.     Column Row Layer    Maximum-Head-Change  Column Row Layer    Maximum-Flux-Residual          L2-NORM 
          0                 1           2             4    7     1       0.1440844250E-01       4    7    1         0.7548014186E+00      0.1983629993E+01
          0                 2           2             4    7     1      -0.1401552467E-02       4    7    1        -0.7548040440E-01      0.1983622531E+00
          0                 3           1             4    7     1       0.9544049174E-04       4    7    1         0.5283628098E-02      0.1388527867E-01

    ------------------------------------------------
       NWT REQUIRED            3 OUTER ITERATIONS 
       AND A TOTAL OF          5 INNER ITERATIONS.
    ------------------------------------------------

 NO OUTPUT CONTROL FOR STRESS PERIOD   39   TIME STEP   28
 
 SOLVING FOR HEAD 
                                                   Max.-Head-Change                         Max.-Flux-Residual
  Residual-Control   Outer-Iter.   Inner-Iter.     Column Row Layer    Maximum-Head-Change  Column Row Layer    Maximum-Flux-Residual          L2-NORM 
          0                 1           2             4    7     1       0.1429139217E-01       4    7    1         0.7486378004E+00      0.1971591235E+01
          0                 2           2             4    7     1      -0.1390166583E-02       4    7    1        -0.7486403726E-01      0.1971583504E+00
          0                 3           1             4    7     1       0.9466515614E-04       4    7    1         0.5240482427E-02      0.1380099491E-01

    ------------------------------------------------
       NWT REQUIRED            3 OUTER ITERATIONS 
       AND A TOTAL OF          5 INNER ITERATIONS.
    ------------------------------------------------

 NO OUTPUT CONTROL FOR STRESS PERIOD   39   TIME STEP   29
 
 SOLVING FOR HEAD 
                                                   Max.-Head-Change                         Max.-Flux-Residual
  Residual-Control   Outer-Iter.   Inner-Iter.     Column Row Layer    Maximum-Head-Change  Column Row Layer    Maximum-Flux-Residual          L2-NORM 
          0                 1           2             4    7     1       0.1417599292E-01       4    7    1         0.7425542735E+00      0.2061620762E+01
          0                 2           2             4    7     1      -0.1378941302E-02       4    7    1        -0.7425567927E-01      0.2055952050E+00
          0                 3           1             4    7     1       0.9390075626E-04       4    7    1         0.5197897400E-02      0.1434007412E-01

    ------------------------------------------------
       NWT REQUIRED            3 OUTER ITERATIONS 
       AND A TOTAL OF          5 INNER ITERATIONS.
    ------------------------------------------------

 NO OUTPUT CONTROL FOR STRESS PERIOD   39   TIME STEP   30



 STREAM LISTING     PERIOD     39   STEP       30

 LAYER ROW COL. STREAM  RCH.  FLOW INTO     FLOW TO   FLOW OUT OF   OVRLND.     DIRECT     STREAM       STREAM     STREAM     STREAM   STREAMBED  STREAMBED
                SEG.NO.  NO.  STRM. RCH.    AQUIFER    STRM. RCH.    RUNOFF     PRECIP       ET          HEAD       DEPTH      WIDTH   CONDCTNC.   GRADIENT

   1    1    1     1     1    3.2750E+01  2.7790E-01   3.2473E+01  0.000E+00  0.000E+00  0.000E+00  1.09432E+03  1.273E+00  1.445E+01  6.503E-02  1.424E+00
   1    2    2     1     2    3.2473E+01  4.3019E-01   3.2042E+01  0.000E+00  0.000E+00  0.000E+00  1.08933E+03  1.270E+00  1.439E+01  1.007E-01  1.423E+00
   1    3    3     1     3    3.2042E+01  3.6669E-01   3.1676E+01  0.000E+00  0.000E+00  0.000E+00  1.08369E+03  1.267E+00  1.432E+01  8.594E-02  1.422E+00
   1    3    4     1     4    3.1676E+01  3.3752E-01   3.1338E+01  0.000E+00  0.000E+00  0.000E+00  1.07867E+03  1.264E+00  1.426E+01  7.916E-02  1.421E+00
   1    4    5     2     1    2.9338E+01  3.3732E-01   2.9001E+01  0.000E+00  0.000E+00  0.000E+00  1.07326E+03  1.325E+00  1.200E+01  7.800E-02  1.442E+00
   1    5    6     2     2    2.9001E+01  2.5899E-01   2.8742E+01  0.000E+00  0.000E+00  0.000E+00  1.06783E+03  1.317E+00  1.200E+01  6.000E-02  1.439E+00
   1    6    6     2     3    2.8742E+01  2.5857E-01   2.8483E+01  0.000E+00  0.000E+00  0.000E+00  1.06310E+03  1.309E+00  1.200E+01  6.000E-02  1.436E+00
   1    7    6     2     4    2.8483E+01  2.5814E-01   2.8225E+01  0.000E+00  0.000E+00  0.000E+00  1.05838E+03  1.302E+00  1.200E+01  6.000E-02  1.434E+00
   1    8    6     2     5    2.8225E+01  2.5771E-01   2.7967E+01  0.000E+00  0.000E+00  0.000E+00  1.05365E+03  1.295E+00  1.200E+01  6.000E-02  1.432E+00
   1    3    5     3     1    2.0000E+00  2.8252E-01   1.7175E+00  0.000E+00  0.000E+00  0.000E+00  1.07555E+03  1.909E+00  9.636E+00  7.227E-02  1.955E+00
   1    3    6     3     2    1.7175E+00  2.4905E-01   1.4684E+00  0.000E+00  0.000E+00  0.000E+00  1.07264E+03  1.727E+00  8.909E+00  6.682E-02  1.864E+00
   1    3    7     3     3    1.4684E+00  1.9718E-01   1.2712E+00  0.000E+00  0.000E+00  0.000E+00  1.06987E+03  1.555E+00  8.218E+00  5.547E-02  1.777E+00
   1    4    8     3     4    1.2712E+00  2.2567E-01   1.0456E+00  0.000E+00  0.000E+00  0.000E+00  1.06682E+03  1.364E+00  7.455E+00  6.709E-02  1.682E+00
   1    5    8     3     5    1.0456E+00  1.5790E-01   8.8768E-01  0.000E+00  0.000E+00  0.000E+00  1.06362E+03  1.164E+00  6.655E+00  4.991E-02  1.582E+00
   1    6    8     3     6    8.8768E-01  5.5980E-02   8.3170E-01  0.000E+00  0.000E+00  0.000E+00  1.06158E+03  1.036E+00  6.145E+00  1.844E-02  1.518E+00
   1    5   10     4     1    1.0000E+01  9.0919E-02   9.9091E+00  0.000E+00  0.000E+00  0.000E+00  1.07836E+03  6.368E-01  1.000E+01  2.500E-02  1.212E+00
   1    5    9     4     2    9.9091E+00  1.8158E-01   9.7275E+00  0.000E+00  0.000E+00  0.000E+00  1.07154E+03  6.315E-01  1.000E+01  5.000E-02  1.211E+00
   1    6    8     4     3    9.7275E+00  1.2689E-01   9.6006E+00  0.000E+00  0.000E+00  0.000E+00  1.06381E+03  6.256E-01  1.000E+01  3.500E-02  1.209E+00
   1    6    8     5     1    1.0432E+01  2.2686E-01   1.0205E+01  0.000E+00  0.000E+00  0.000E+00  1.05868E+03  6.790E-01  1.542E+01  6.166E-02  1.226E+00
   1    7    7     5     2    1.0205E+01  2.7894E-01   9.9265E+00  0.000E+00  0.000E+00  0.000E+00  1.05417E+03  6.732E-01  1.519E+01  7.594E-02  1.224E+00
   1    8    7     5     3    9.9265E+00  1.9221E-01   9.7343E+00  0.000E+00  0.000E+00  0.000E+00  1.04992E+03  6.676E-01  1.497E+01  5.241E-02  1.223E+00
   1    8    6     5     4    9.7343E+00  1.3577E-01   9.5985E+00  0.000E+00  0.000E+00  0.000E+00  1.04691E+03  6.637E-01  1.482E+01  3.706E-02  1.221E+00
   1    9    6     6     1    3.7566E+01  2.7334E-01   3.7293E+01  0.000E+00  0.000E+00  0.000E+00  1.04428E+03  1.556E+00  1.200E+01  6.000E-02  1.519E+00
   1   10    7     6     2    3.7293E+01  2.7293E-01   3.7020E+01  0.000E+00  0.000E+00  0.000E+00  1.03973E+03  1.549E+00  1.200E+01  6.000E-02  1.516E+00
   1   11    7     6     3    3.7020E+01  2.7252E-01   3.6747E+01  0.000E+00  0.000E+00  0.000E+00  1.03518E+03  1.542E+00  1.200E+01  6.000E-02  1.514E+00
   1   12    7     6     4    3.6747E+01  2.7211E-01   3.6475E+01  0.000E+00  0.000E+00  0.000E+00  1.03063E+03  1.535E+00  1.200E+01  6.000E-02  1.512E+00
   1   13    7     6     5    3.6475E+01  1.8392E-02   3.6457E+01  0.000E+00  0.000E+00  0.000E+00  1.02744E+03  1.531E+00  1.200E+01  2.400E-02  2.554E-01
   1   14    9     7     1    1.5000E+02  1.3658E+00   1.4863E+02  0.000E+00  0.000E+00  0.000E+00  1.03987E+03  2.288E+00  5.529E+01  5.593E-01  8.140E-01
   1   13    8     7     2    1.4863E+02  1.9504E+00   1.4668E+02  0.000E+00  0.000E+00  0.000E+00  1.03478E+03  2.279E+00  5.525E+01  6.147E-01  1.058E+00
   1   13    7     7     3    1.4668E+02  1.6831E+00   1.4500E+02  0.000E+00  0.000E+00  0.000E+00  1.02969E+03  2.269E+00  5.521E+01  5.584E-01  1.005E+00
   1   13    6     8     1    1.8146E+02  1.1952E+00   1.8026E+02  0.000E+00  0.000E+00  0.000E+00  1.02490E+03  3.022E+00  4.381E+01  4.465E-01  8.924E-01
   1   13    5     8     2    1.8026E+02  4.1776E-01   1.7984E+02  0.000E+00  0.000E+00  0.000E+00  1.01864E+03  3.016E+00  4.374E+01  4.457E-01  3.124E-01
   1   13    4     8     3    1.7984E+02 -1.4320E+00   1.8128E+02  0.000E+00  0.000E+00  0.000E+00  1.01239E+03  3.020E+00  4.379E+01  4.462E+00 -1.070E-01
   1   13    3     8     4    1.8128E+02 -3.0343E+00   1.8431E+02  0.000E+00  0.000E+00  0.000E+00  1.00616E+03  3.034E+00  4.399E+01  4.482E+00 -2.256E-01
   1   13    2     8     5    1.8431E+02 -2.1778E+00   1.8649E+02  0.000E+00  0.000E+00  0.000E+00  9.99925E+02  3.050E+00  4.422E+01  4.506E+00 -1.611E-01
   1   13    1     8     6    1.8649E+02 -1.7798E+00   1.8827E+02  0.000E+00  0.000E+00  0.000E+00  9.94937E+02  3.062E+00  4.440E+01  2.715E+00 -2.185E-01
   1    8    6     9     1    0.0000E+00  0.0000E+00   0.0000E+00  0.000E+00  0.000E+00  0.000E+00  1.07875E+03  0.000E+00  4.000E+00  0.000E+00  1.000E+00
   1    8    5     9     2    0.0000E+00  0.0000E+00   0.0000E+00  0.000E+00  0.000E+00  0.000E+00  1.07825E+03  0.000E+00  4.000E+00  0.000E+00  1.000E+00





UNSATURATED ZONE PACKAGE VOLUMETRIC BUDGET FOR  TIME STEP    30 STRESS PERIOD   39
  ------------------------------------------------------------------------------



     CUMULATIVE VOLUMES      L**3       RATES FOR THIS TIME STEP      L**3/T
     ------------------                 ------------------------

           IN:                                      IN:
           ---                                      ---
        INFILTRATION =  1288550170.1949          INFILTRATION =           0.8475

          OUT:                                     OUT:
          ----                                     ----
              UZF ET =  1286717551.0384                UZF ET =           0.7500
        UZF RECHARGE =       73224.0000          UZF RECHARGE =       0.0000E+00

            IN - OUT =     1759395.1566              IN - OUT =       9.7500E-02

          STORAGE:                                 STORAGE:
          --------                                 --------
      STORAGE CHANGE =     1759395.2743        STORAGE CHANGE =       9.7500E-02

 PERCENT DISCREPANCY IS DIFFERENCE BETWEEN IN-OUT MINUS CHANGE IN STORAGE
 DIVIDED BY THE AVERAGE OF IN AND OUT TIMES 100

 PERCENT DISCREPANCY =           0.00     PERCENT DISCREPANCY =           0.00






1
  VOLUMETRIC BUDGET FOR AGRICULTURAL FIELDS AT  END OF TIME STEP   30, STRESS PERIOD  39
  ------------------------------------------------------------------------------

     CUMULATIVE VOLUMES      L**3       RATES FOR THIS TIME STEP      L**3/T
     ------------------                 ------------------------

           IN:                                      IN:
           ---                                      ---
               AG WELLS  =  1203775104.0000                 AG WELLS  =           0.0000
      DIVERSION SEGMENTS =           0.0000        DIVERSION SEGMENTS =           0.0000
       IRRIGATION PONDS  =           0.0000         IRRIGATION PONDS  =           0.0000
           GW IRRIGATION =           0.0000             GW IRRIGATION =           0.0000
           SW IRRIGATION =           0.0000             SW IRRIGATION =           0.0000
        SYSTEM LOSSES GW =           0.0000          SYSTEM LOSSES GW =           0.0000
        SYSTEM LOSSES SW =           0.0000          SYSTEM LOSSES SW =           0.0000

                TOTAL IN =  1203775104.0000                  TOTAL IN =           0.0000

          OUT:                                     OUT:
          ----                                     ----
               AG WELLS  =           0.0000                 AG WELLS  =           0.0000
      DIVERSION SEGMENTS =           0.0000        DIVERSION SEGMENTS =           0.0000
       IRRIGATION PONDS  =           0.0000         IRRIGATION PONDS  =           0.0000
           GW IRRIGATION =  1203775104.0000             GW IRRIGATION =           0.0000
           SW IRRIGATION =           0.0000             SW IRRIGATION =           0.0000
        SYSTEM LOSSES GW =           0.0000          SYSTEM LOSSES GW =           0.0000
        SYSTEM LOSSES SW =           0.0000          SYSTEM LOSSES SW =           0.0000

               TOTAL OUT =  1203775104.0000                 TOTAL OUT =           0.0000

                IN - OUT =           0.0000                  IN - OUT =           0.0000

     PERCENT DISCREPANCY =           0.00         PERCENT DISCREPANCY =           0.00



1
  VOLUMETRIC BUDGET FOR ENTIRE MODEL AT END OF TIME STEP   30, STRESS PERIOD  39
  ------------------------------------------------------------------------------

     CUMULATIVE VOLUMES      L**3       RATES FOR THIS TIME STEP      L**3/T
     ------------------                 ------------------------

           IN:                                      IN:
           ---                                      ---
             STORAGE     =  1678300544.0000               STORAGE     =           4.6602
       CONSTANT HEAD     =           0.0000         CONSTANT HEAD     =           0.0000
     HEAD DEP BOUNDS     =    28632934.0000       HEAD DEP BOUNDS     =           0.2878
      STREAM LEAKAGE     =  1228158848.0000        STREAM LEAKAGE     =          12.9061
        UZF RECHARGE     =       73223.9531          UZF RECHARGE     =           0.0000
               GW ET     =           0.0000                 GW ET     =           0.0000
     SURFACE LEAKAGE     =           0.0000       SURFACE LEAKAGE     =           0.0000
           AG WELLS      =           0.0000             AG WELLS      =           0.0000

                TOTAL IN =  2935165440.0000                  TOTAL IN =          17.8541

          OUT:                                     OUT:
          ----                                     ----
             STORAGE     =   670570432.0000               STORAGE     =           9.1429
       CONSTANT HEAD     =           0.0000         CONSTANT HEAD     =           0.0000
     HEAD DEP BOUNDS     =    29209886.0000       HEAD DEP BOUNDS     =           0.2885
      STREAM LEAKAGE     =  1023241984.0000        STREAM LEAKAGE     =           8.4239
        UZF RECHARGE     =           0.0000          UZF RECHARGE     =           0.0000
               GW ET     =     8372419.5000                 GW ET     =           0.0000
     SURFACE LEAKAGE     =           0.0000       SURFACE LEAKAGE     =           0.0000
           AG WELLS      =  1203775104.0000             AG WELLS      =           0.0000

               TOTAL OUT =  2935170048.0000                 TOTAL OUT =          17.8554

                IN - OUT =       -4608.0000                  IN - OUT =      -1.2741E-03

     PERCENT DISCREPANCY =          -0.00         PERCENT DISCREPANCY =          -0.01






         TIME SUMMARY AT END OF TIME STEP   30 IN STRESS PERIOD   39
                    SECONDS     MINUTES      HOURS       DAYS        YEARS
                    -----------------------------------------------------------
   TIME STEP LENGTH  87667.      1461.1      24.352      1.0147     2.77799E-03
 STRESS PERIOD TIME 2.63000E+06  43833.      730.56      30.440     8.33397E-02
         TOTAL TIME 1.00026E+08 1.66710E+06  27785.      1157.7      3.1696    
1
1
                            STRESS PERIOD NO.   40, LENGTH =   2630000.    
                            -----------------------------------------------

                              NUMBER OF TIME STEPS =    30

                               MULTIPLIER FOR DELT =     1.000

                            INITIAL TIME STEP SIZE =   87666.66    

 REUSING NON-PARAMETER GHB CELLS FROM LAST STRESS PERIOD

      2 GHB CELLS

 REUSING STREAM SEGMENT DATA FROM LAST STRESS PERIOD



            AREAL INFILTRATION RATE
 READING ON UNIT   19 WITH FORMAT: (FREE)              

            1           2           3           4           5           6           7           8           9          10
 ........................................................................................................................
   1   1.0000E-10  2.0000E-10   0.000       0.000       0.000       0.000       0.000       0.000       0.000       0.000    
   2   2.0000E-10  1.0000E-10  2.0000E-10   0.000       0.000      8.0000E-10  8.0000E-10  5.0000E-10   0.000       0.000    
   3    0.000      5.0000E-10  1.0000E-10  1.0000E-10  8.0000E-10  8.0000E-10  5.0000E-10  5.0000E-10   0.000       0.000    
   4   8.0000E-10  5.0000E-10  1.0000E-10  1.0000E-10  1.0000E-10  1.0000E-10  1.0000E-10  1.0000E-10  2.0000E-10   0.000    
   5   8.0000E-10  5.0000E-10  1.0000E-10  1.0000E-10  1.0000E-10  1.0000E-10  1.0000E-10  1.0000E-10  1.0000E-10  1.0000E-10
   6   8.0000E-10  5.0000E-10  5.0000E-10  2.0000E-10  2.0000E-10  1.0000E-10  1.0000E-10  1.0000E-10  1.0000E-10  5.0000E-10
   7   8.0000E-10  5.0000E-10  5.0000E-10  2.0000E-10  2.0000E-10  1.0000E-10  1.0000E-10  2.0000E-10  2.0000E-10   0.000    
   8    0.000      5.0000E-10  5.0000E-10  2.0000E-10  2.0000E-10  1.0000E-10  1.0000E-10  2.0000E-10  5.0000E-10   0.000    
   9    0.000      5.0000E-10  5.0000E-10  2.0000E-10  2.0000E-10  1.0000E-10  1.0000E-10  2.0000E-10  5.0000E-10   0.000    
  10    0.000      5.0000E-10  5.0000E-10  2.0000E-10  2.0000E-10  1.0000E-10  1.0000E-10  2.0000E-10  5.0000E-10  8.0000E-10
  11    0.000      1.0000E-10  1.0000E-10  1.0000E-10  1.0000E-10  1.0000E-10  1.0000E-10  2.0000E-10  5.0000E-10   0.000    
  12   1.0000E-10  1.0000E-10  1.0000E-10  1.0000E-10  1.0000E-10  1.0000E-10  1.0000E-10  1.0000E-10  2.0000E-10   0.000    
  13   1.0000E-10  1.0000E-10  2.0000E-10  2.0000E-10  2.0000E-10  2.0000E-10  2.0000E-10  1.0000E-10  1.0000E-10   0.000    
  14    0.000      2.0000E-10  5.0000E-10  5.0000E-10  5.0000E-10  5.0000E-10  5.0000E-10  2.0000E-10  1.0000E-10   0.000    
  15    0.000       0.000      8.0000E-10  8.0000E-10  8.0000E-10  8.0000E-10   0.000       0.000       0.000       0.000    

                  ET RATE =  5.000000E-10

 USING ET EXTINCTION DEPTH FROM PREVIOUS STRESS PERIOD. CURRENT PERIOD IS:      40

 USING EXTINCTION WATER CONTENT FROM PREVIOUS STRESS PERIOD. CURRENT PERIOD IS:      40

 USING AIR ENTRY PRESSURE FROM PREVIOUS STRESS PERIOD. CURRENT PERIOD IS:      40

 USING ROOT PRESSURE HEAD FROM PREVIOUS STRESS PERIOD. CURRENT PERIOD IS:      40

 USING ROOT ACTIVITY FROM PREVIOUS STRESS PERIOD. CURRENT PERIOD IS:      40

 PROCESSING AG STRESS PERIOD DATA

 READING AG STRESS PERIOD DATA

 READING IRRIGATION SEGMENT

 READING IRRIGATION WELL

 READING SUPPLEMENTAL WELL

 NO IRRPOND OR REUSING IRRPOND DATA FROM LAST STRESS PERIOD

 END PROCESSING AG STRESS PERIOD DATA OPTIONS
 
 SOLVING FOR HEAD 
                                                   Max.-Head-Change                         Max.-Flux-Residual
  Residual-Control   Outer-Iter.   Inner-Iter.     Column Row Layer    Maximum-Head-Change  Column Row Layer    Maximum-Flux-Residual          L2-NORM 
          0                 1           2             4   13     1       0.2304117239E-01       4   13    1         0.1330730225E+01      0.3019544149E+01
          0                 2           2             4   13     1      -0.2215974107E-02       4   13    1        -0.1315935434E+00      0.2965808237E+00
          0                 3           2             4   13     1       0.1485382277E-03       4   13    1         0.9069513262E-02      0.2026609701E-01
          0                 4           1             4   13     1      -0.5767806202E-05       4   13    1        -0.3621428787E-03      0.7985044448E-03

    ------------------------------------------------
       NWT REQUIRED            4 OUTER ITERATIONS 
       AND A TOTAL OF          7 INNER ITERATIONS.
    ------------------------------------------------

 NO OUTPUT CONTROL FOR STRESS PERIOD   40   TIME STEP    1
 
 SOLVING FOR HEAD 
                                                   Max.-Head-Change                         Max.-Flux-Residual
  Residual-Control   Outer-Iter.   Inner-Iter.     Column Row Layer    Maximum-Head-Change  Column Row Layer    Maximum-Flux-Residual          L2-NORM 
          0                 1           2             4   13     1       0.2074940655E-01       4   13    1         0.1197763586E+01      0.2873869725E+01
          0                 2           2             4   13     1      -0.1995573061E-02       4   13    1        -0.1184445043E+00      0.2826616088E+00
          0                 3           2             4   13     1       0.1337561763E-03       4   13    1         0.8162681407E-02      0.1935194265E-01
          0                 4           1             4   13     1      -0.5197533607E-05       4   13    1        -0.3261521315E-03      0.7650818892E-03

    ------------------------------------------------
       NWT REQUIRED            4 OUTER ITERATIONS 
       AND A TOTAL OF          7 INNER ITERATIONS.
    ------------------------------------------------

 NO OUTPUT CONTROL FOR STRESS PERIOD   40   TIME STEP    2
 
 SOLVING FOR HEAD 
                                                   Max.-Head-Change                         Max.-Flux-Residual
  Residual-Control   Outer-Iter.   Inner-Iter.     Column Row Layer    Maximum-Head-Change  Column Row Layer    Maximum-Flux-Residual          L2-NORM 
          0                 1           2             4   13     1       0.1869551456E-01       4   13    1         0.1078634462E+01      0.2745402730E+01
          0                 2           2             4   13     1      -0.1798009250E-02       4   13    1        -0.1066615660E+00      0.2703942448E+00
          0                 3           1             4   13     1       0.1205111862E-03       4   13    1         0.7350420061E-02      0.1854687526E-01
          0                 4           1             4   13     1      -0.4673830932E-05       4   13    1        -0.2931284771E-03      0.7354248882E-03

    ------------------------------------------------
       NWT REQUIRED            4 OUTER ITERATIONS 
       AND A TOTAL OF          6 INNER ITERATIONS.
    ------------------------------------------------

 NO OUTPUT CONTROL FOR STRESS PERIOD   40   TIME STEP    3
 
 SOLVING FOR HEAD 
                                                   Max.-Head-Change                         Max.-Flux-Residual
  Residual-Control   Outer-Iter.   Inner-Iter.     Column Row Layer    Maximum-Head-Change  Column Row Layer    Maximum-Flux-Residual          L2-NORM 
          0                 1           2             4   13     1       0.1685415147E-01       4   13    1         0.9718659721E+00      0.2632179414E+01
          0                 2           2             4   13     1      -0.1620892218E-02       4   13    1        -0.9610146429E-01      0.2595900237E+00
          0                 3           1             4   13     1       0.1086405570E-03       4   13    1         0.6622655495E-02      0.1783877392E-01
          0                 4           1             4   13     1      -0.4214318342E-05       4   13    1        -0.2641507699E-03      0.7092588670E-03

    ------------------------------------------------
       NWT REQUIRED            4 OUTER ITERATIONS 
       AND A TOTAL OF          6 INNER ITERATIONS.
    ------------------------------------------------

 NO OUTPUT CONTROL FOR STRESS PERIOD   40   TIME STEP    4
 
 SOLVING FOR HEAD 
                                                   Max.-Head-Change                         Max.-Flux-Residual
  Residual-Control   Outer-Iter.   Inner-Iter.     Column Row Layer    Maximum-Head-Change  Column Row Layer    Maximum-Flux-Residual          L2-NORM 
          0                 1           2             2   13     1       0.1538150685E-01       4   13    1         0.8761427086E+00      0.2532434876E+01
          0                 2           2             4   13     1      -0.1462026761E-02       4   13    1        -0.8663267039E-01      0.2500747882E+00
          0                 3           1             4   13     1       0.9799267820E-04       4   13    1         0.5970101954E-02      0.1721484292E-01

    ------------------------------------------------
       NWT REQUIRED            3 OUTER ITERATIONS 
       AND A TOTAL OF          5 INNER ITERATIONS.
    ------------------------------------------------

 NO OUTPUT CONTROL FOR STRESS PERIOD   40   TIME STEP    5
 
 SOLVING FOR HEAD 
                                                   Max.-Head-Change                         Max.-Flux-Residual
  Residual-Control   Outer-Iter.   Inner-Iter.     Column Row Layer    Maximum-Head-Change  Column Row Layer    Maximum-Flux-Residual          L2-NORM 
          0                 1           2             2   13     1       0.1417055035E-01       2   13    1         0.8017433830E+00      0.2444545487E+01
          0                 2           2             4   13     1      -0.1319486785E-02       4   13    1        -0.7813974262E-01      0.2416936320E+00
          0                 3           1             4    7     1       0.8956462999E-04       4   13    1         0.5384973428E-02      0.1666530121E-01

    ------------------------------------------------
       NWT REQUIRED            3 OUTER ITERATIONS 
       AND A TOTAL OF          5 INNER ITERATIONS.
    ------------------------------------------------

 NO OUTPUT CONTROL FOR STRESS PERIOD   40   TIME STEP    6
 
 SOLVING FOR HEAD 
                                                   Max.-Head-Change                         Max.-Flux-Residual
  Residual-Control   Outer-Iter.   Inner-Iter.     Column Row Layer    Maximum-Head-Change  Column Row Layer    Maximum-Flux-Residual          L2-NORM 
          0                 1           2             4    7     1       0.1341802148E-01       2   13    1         0.7385774776E+00      0.2367071710E+01
          0                 2           2             4    7     1      -0.1305210835E-02       4   13    1        -0.7051918840E-01      0.2343057839E+00
          0                 3           1             4    7     1       0.8887998711E-04       4    7    1         0.4917812471E-02      0.1618150304E-01

    ------------------------------------------------
       NWT REQUIRED            3 OUTER ITERATIONS 
       AND A TOTAL OF          5 INNER ITERATIONS.
    ------------------------------------------------

 NO OUTPUT CONTROL FOR STRESS PERIOD   40   TIME STEP    7
 
 SOLVING FOR HEAD 
                                                   Max.-Head-Change                         Max.-Flux-Residual
  Residual-Control   Outer-Iter.   Inner-Iter.     Column Row Layer    Maximum-Head-Change  Column Row Layer    Maximum-Flux-Residual          L2-NORM 
          0                 1           2             4    7     1       0.1331628502E-01       4    7    1         0.6971761401E+00      0.2298736650E+01
          0                 2           2             4    7     1      -0.1295314586E-02       4    7    1        -0.6971782679E-01      0.2277874996E+00
          0                 3           1             4    7     1       0.8820609050E-04       4    7    1         0.4880247978E-02      0.1575374978E-01

    ------------------------------------------------
       NWT REQUIRED            3 OUTER ITERATIONS 
       AND A TOTAL OF          5 INNER ITERATIONS.
    ------------------------------------------------

 NO OUTPUT CONTROL FOR STRESS PERIOD   40   TIME STEP    8
 
 SOLVING FOR HEAD 
                                                   Max.-Head-Change                         Max.-Flux-Residual
  Residual-Control   Outer-Iter.   Inner-Iter.     Column Row Layer    Maximum-Head-Change  Column Row Layer    Maximum-Flux-Residual          L2-NORM 
          0                 1           2             4    7     1       0.1321611732E-01       4    7    1         0.6918939311E+00      0.2238361873E+01
          0                 2           2             4    7     1      -0.1285570937E-02       4    7    1        -0.6918960164E-01      0.2220278174E+00
          0                 3           1             4    7     1       0.8754258479E-04       4    7    1         0.4843272223E-02      0.1537613711E-01

    ------------------------------------------------
       NWT REQUIRED            3 OUTER ITERATIONS 
       AND A TOTAL OF          5 INNER ITERATIONS.
    ------------------------------------------------

 NO OUTPUT CONTROL FOR STRESS PERIOD   40   TIME STEP    9
 
 SOLVING FOR HEAD 
                                                   Max.-Head-Change                         Max.-Flux-Residual
  Residual-Control   Outer-Iter.   Inner-Iter.     Column Row Layer    Maximum-Head-Change  Column Row Layer    Maximum-Flux-Residual          L2-NORM 
          0                 1           2             4    7     1       0.1311734408E-01       4    7    1         0.6866857427E+00      0.2184925186E+01
          0                 2           2             4    7     1      -0.1275962933E-02       4    7    1        -0.6866877867E-01      0.2169263080E+00
          0                 3           1             4    7     1       0.8688831620E-04       4    7    1         0.4806814641E-02      0.1504125047E-01

    ------------------------------------------------
       NWT REQUIRED            3 OUTER ITERATIONS 
       AND A TOTAL OF          5 INNER ITERATIONS.
    ------------------------------------------------

 NO OUTPUT CONTROL FOR STRESS PERIOD   40   TIME STEP   10
 
 SOLVING FOR HEAD 
                                                   Max.-Head-Change                         Max.-Flux-Residual
  Residual-Control   Outer-Iter.   Inner-Iter.     Column Row Layer    Maximum-Head-Change  Column Row Layer    Maximum-Flux-Residual          L2-NORM 
          0                 1           2             4    7     1       0.1301992460E-01       4    7    1         0.6815498547E+00      0.2137508722E+01
          0                 2           2             4    7     1      -0.1266486614E-02       4    7    1        -0.6815518584E-01      0.2123966204E+00
          0                 3           1             4    7     1       0.8624301493E-04       4    7    1         0.4770863176E-02      0.1474403751E-01

    ------------------------------------------------
       NWT REQUIRED            3 OUTER ITERATIONS 
       AND A TOTAL OF          5 INNER ITERATIONS.
    ------------------------------------------------

 NO OUTPUT CONTROL FOR STRESS PERIOD   40   TIME STEP   11
 
 SOLVING FOR HEAD 
                                                   Max.-Head-Change                         Max.-Flux-Residual
  Residual-Control   Outer-Iter.   Inner-Iter.     Column Row Layer    Maximum-Head-Change  Column Row Layer    Maximum-Flux-Residual          L2-NORM 
          0                 1           2             4    7     1       0.1292396424E-01       4    7    1         0.6764914737E+00      0.2095322698E+01
          0                 2           2             4    7     1      -0.1257152230E-02       4    7    1        -0.6764934382E-01      0.2083614141E+00
          0                 3           1             4    7     1       0.8560737845E-04       4    7    1         0.4735454241E-02      0.1447855825E-01

    ------------------------------------------------
       NWT REQUIRED            3 OUTER ITERATIONS 
       AND A TOTAL OF          5 INNER ITERATIONS.
    ------------------------------------------------

 NO OUTPUT CONTROL FOR STRESS PERIOD   40   TIME STEP   12
 
 SOLVING FOR HEAD 
                                                   Max.-Head-Change                         Max.-Flux-Residual
  Residual-Control   Outer-Iter.   Inner-Iter.     Column Row Layer    Maximum-Head-Change  Column Row Layer    Maximum-Flux-Residual          L2-NORM 
          0                 1           2             4    7     1       0.1282941478E-01       4    7    1         0.6715087456E+00      0.2057651945E+01
          0                 2           2             4    7     1      -0.1247955090E-02       4    7    1        -0.6715106723E-01      0.2047622484E+00
          0                 3           1             4    7     1       0.8498108819E-04       4    7    1         0.4700574912E-02      0.1424090588E-01

    ------------------------------------------------
       NWT REQUIRED            3 OUTER ITERATIONS 
       AND A TOTAL OF          5 INNER ITERATIONS.
    ------------------------------------------------

 NO OUTPUT CONTROL FOR STRESS PERIOD   40   TIME STEP   13
 
 SOLVING FOR HEAD 
                                                   Max.-Head-Change                         Max.-Flux-Residual
  Residual-Control   Outer-Iter.   Inner-Iter.     Column Row Layer    Maximum-Head-Change  Column Row Layer    Maximum-Flux-Residual          L2-NORM 
          0                 1           2             4    7     1       0.1273610793E-01       4    7    1         0.6665918525E+00      0.2023888308E+01
          0                 2           2             4    7     1      -0.1238878823E-02       4    7    1        -0.6665937423E-01      0.2015156346E+00
          0                 3           1             4    7     1       0.8436302873E-04       4    7    1         0.4666156424E-02      0.1402674035E-01

    ------------------------------------------------
       NWT REQUIRED            3 OUTER ITERATIONS 
       AND A TOTAL OF          5 INNER ITERATIONS.
    ------------------------------------------------

 NO OUTPUT CONTROL FOR STRESS PERIOD   40   TIME STEP   14
 
 SOLVING FOR HEAD 
                                                   Max.-Head-Change                         Max.-Flux-Residual
  Residual-Control   Outer-Iter.   Inner-Iter.     Column Row Layer    Maximum-Head-Change  Column Row Layer    Maximum-Flux-Residual          L2-NORM 
          0                 1           2             4    7     1       0.1264401246E-01       4    7    1         0.6617393860E+00      0.1993486758E+01
          0                 2           2             4    7     1      -0.1229920391E-02       4    7    1        -0.6617412398E-01      0.1985942316E+00
          0                 3           1             4    7     1       0.8375299355E-04       4    7    1         0.4632188928E-02      0.1383261211E-01

    ------------------------------------------------
       NWT REQUIRED            3 OUTER ITERATIONS 
       AND A TOTAL OF          5 INNER ITERATIONS.
    ------------------------------------------------

 NO OUTPUT CONTROL FOR STRESS PERIOD   40   TIME STEP   15
 
 SOLVING FOR HEAD 
                                                   Max.-Head-Change                         Max.-Flux-Residual
  Residual-Control   Outer-Iter.   Inner-Iter.     Column Row Layer    Maximum-Head-Change  Column Row Layer    Maximum-Flux-Residual          L2-NORM 
          0                 1           2             4    7     1       0.1255336431E-01       4    7    1         0.6569643635E+00      0.1966017113E+01
          0                 2           2             4    7     1      -0.1221102747E-02       4    7    1        -0.6569661825E-01      0.1959512708E+00
          0                 3           1             4    7     1       0.8315254482E-04       4    7    1         0.4598763535E-02      0.1365637888E-01

    ------------------------------------------------
       NWT REQUIRED            3 OUTER ITERATIONS 
       AND A TOTAL OF          5 INNER ITERATIONS.
    ------------------------------------------------

 NO OUTPUT CONTROL FOR STRESS PERIOD   40   TIME STEP   16
 
 SOLVING FOR HEAD 
                                                   Max.-Head-Change                         Max.-Flux-Residual
  Residual-Control   Outer-Iter.   Inner-Iter.     Column Row Layer    Maximum-Head-Change  Column Row Layer    Maximum-Flux-Residual          L2-NORM 
          0                 1           2             4    7     1       0.1246385865E-01       4    7    1         0.6522497462E+00      0.1941073816E+01
          0                 2           2             4    7     1      -0.1212396236E-02       4    7    1        -0.6522515312E-01      0.1935547947E+00
          0                 3           1             4    7     1       0.8255966419E-04       4    7    1         0.4565760983E-02      0.1349740262E-01

    ------------------------------------------------
       NWT REQUIRED            3 OUTER ITERATIONS 
       AND A TOTAL OF          5 INNER ITERATIONS.
    ------------------------------------------------

 NO OUTPUT CONTROL FOR STRESS PERIOD   40   TIME STEP   17
 
 SOLVING FOR HEAD 
                                                   Max.-Head-Change                         Max.-Flux-Residual
  Residual-Control   Outer-Iter.   Inner-Iter.     Column Row Layer    Maximum-Head-Change  Column Row Layer    Maximum-Flux-Residual          L2-NORM 
          0                 1           2             4    7     1       0.1237559785E-01       4    7    1         0.6476016826E+00      0.1918306413E+01
          0                 2           2             4    7     1      -0.1203810818E-02       4    7    1        -0.6476034345E-01      0.1913449354E+00
          0                 3           1             4    7     1       0.8197503021E-04       4    7    1         0.4533224345E-02      0.1334912456E-01

    ------------------------------------------------
       NWT REQUIRED            3 OUTER ITERATIONS 
       AND A TOTAL OF          5 INNER ITERATIONS.
    ------------------------------------------------

 NO OUTPUT CONTROL FOR STRESS PERIOD   40   TIME STEP   18
 
 SOLVING FOR HEAD 
                                                   Max.-Head-Change                         Max.-Flux-Residual
  Residual-Control   Outer-Iter.   Inner-Iter.     Column Row Layer    Maximum-Head-Change  Column Row Layer    Maximum-Flux-Residual          L2-NORM 
          0                 1           2             4    7     1       0.1228841850E-01       4    7    1         0.6430108446E+00      0.1897436306E+01
          0                 2           2             4    7     1      -0.1195330597E-02       4    7    1        -0.6430125642E-01      0.1893239416E+00
          0                 3           1             4    7     1       0.8139755855E-04       4    7    1         0.4501088259E-02      0.1321419746E-01

    ------------------------------------------------
       NWT REQUIRED            3 OUTER ITERATIONS 
       AND A TOTAL OF          5 INNER ITERATIONS.
    ------------------------------------------------

 NO OUTPUT CONTROL FOR STRESS PERIOD   40   TIME STEP   19
 
 SOLVING FOR HEAD 
                                                   Max.-Head-Change                         Max.-Flux-Residual
  Residual-Control   Outer-Iter.   Inner-Iter.     Column Row Layer    Maximum-Head-Change  Column Row Layer    Maximum-Flux-Residual          L2-NORM 
          0                 1           2             4    7     1       0.1220242560E-01       4    7    1         0.6384833965E+00      0.1878208998E+01
          0                 2           2             4    7     1      -0.1186965786E-02       4    7    1        -0.6384850848E-01      0.1874581905E+00
          0                 3           1             4    7     1       0.8082794669E-04       4    7    1         0.4469395927E-02      0.1308872654E-01

    ------------------------------------------------
       NWT REQUIRED            3 OUTER ITERATIONS 
       AND A TOTAL OF          5 INNER ITERATIONS.
    ------------------------------------------------

 NO OUTPUT CONTROL FOR STRESS PERIOD   40   TIME STEP   20
 
 SOLVING FOR HEAD 
                                                   Max.-Head-Change                         Max.-Flux-Residual
  Residual-Control   Outer-Iter.   Inner-Iter.     Column Row Layer    Maximum-Head-Change  Column Row Layer    Maximum-Flux-Residual          L2-NORM 
          0                 1           2             4    7     1       0.1211759357E-01       4    7    1         0.6340174633E+00      0.1860410246E+01
          0                 2           2             4    7     1      -0.1178713896E-02       4    7    1        -0.6340191211E-01      0.1857272115E+00
          0                 3           1             4    7     1       0.8026602399E-04       4    7    1         0.4438134179E-02      0.1297231282E-01

    ------------------------------------------------
       NWT REQUIRED            3 OUTER ITERATIONS 
       AND A TOTAL OF          5 INNER ITERATIONS.
    ------------------------------------------------

 NO OUTPUT CONTROL FOR STRESS PERIOD   40   TIME STEP   21
 
 SOLVING FOR HEAD 
                                                   Max.-Head-Change                         Max.-Flux-Residual
  Residual-Control   Outer-Iter.   Inner-Iter.     Column Row Layer    Maximum-Head-Change  Column Row Layer    Maximum-Flux-Residual          L2-NORM 
          0                 1           2             4    7     1       0.1203375781E-01       4    7    1         0.6296044002E+00      0.1843850250E+01
          0                 2           2             4    7     1      -0.1170558919E-02       4    7    1        -0.6296060281E-01      0.1841132409E+00
          0                 3           1             4    7     1       0.7971070081E-04       4    7    1         0.4407242549E-02      0.1286285521E-01

    ------------------------------------------------
       NWT REQUIRED            3 OUTER ITERATIONS 
       AND A TOTAL OF          5 INNER ITERATIONS.
    ------------------------------------------------

 NO OUTPUT CONTROL FOR STRESS PERIOD   40   TIME STEP   22
 
 SOLVING FOR HEAD 
                                                   Max.-Head-Change                         Max.-Flux-Residual
  Residual-Control   Outer-Iter.   Inner-Iter.     Column Row Layer    Maximum-Head-Change  Column Row Layer    Maximum-Flux-Residual          L2-NORM 
          0                 1           2             4    7     1       0.1195116685E-01       4    7    1         0.6252576307E+00      0.1828378503E+01
          0                 2           2             4    7     1      -0.1162525028E-02       4    7    1        -0.6252592295E-01      0.1826026392E+00
          0                 3           1             4    7     1       0.7916362308E-04       4    7    1         0.4376814979E-02      0.1276040483E-01

    ------------------------------------------------
       NWT REQUIRED            3 OUTER ITERATIONS 
       AND A TOTAL OF          5 INNER ITERATIONS.
    ------------------------------------------------

 NO OUTPUT CONTROL FOR STRESS PERIOD   40   TIME STEP   23
 
 SOLVING FOR HEAD 
                                                   Max.-Head-Change                         Max.-Flux-Residual
  Residual-Control   Outer-Iter.   Inner-Iter.     Column Row Layer    Maximum-Head-Change  Column Row Layer    Maximum-Flux-Residual          L2-NORM 
          0                 1           2             4    7     1       0.1186951553E-01       4    7    1         0.6209607633E+00      0.1813846517E+01
          0                 2           2             4    7     1      -0.1154582539E-02       4    7    1        -0.6209623337E-01      0.1811809162E+00
          0                 3           1             4    7     1       0.7862276987E-04       4    7    1         0.4346736733E-02      0.1266389648E-01

    ------------------------------------------------
       NWT REQUIRED            3 OUTER ITERATIONS 
       AND A TOTAL OF          5 INNER ITERATIONS.
    ------------------------------------------------

 NO OUTPUT CONTROL FOR STRESS PERIOD   40   TIME STEP   24
 
 SOLVING FOR HEAD 
                                                   Max.-Head-Change                         Max.-Flux-Residual
  Residual-Control   Outer-Iter.   Inner-Iter.     Column Row Layer    Maximum-Head-Change  Column Row Layer    Maximum-Flux-Residual          L2-NORM 
          0                 1           2             4    7     1       0.1178891862E-01       4    7    1         0.6167199339E+00      0.1800138840E+01
          0                 2           2             4    7     1      -0.1146742617E-02       4    7    1        -0.6167214770E-01      0.1798370584E+00
          0                 3           1             4    7     1       0.7808890052E-04       4    7    1         0.4317050752E-02      0.1257252724E-01

    ------------------------------------------------
       NWT REQUIRED            3 OUTER ITERATIONS 
       AND A TOTAL OF          5 INNER ITERATIONS.
    ------------------------------------------------

 NO OUTPUT CONTROL FOR STRESS PERIOD   40   TIME STEP   25
 
 SOLVING FOR HEAD 
                                                   Max.-Head-Change                         Max.-Flux-Residual
  Residual-Control   Outer-Iter.   Inner-Iter.     Column Row Layer    Maximum-Head-Change  Column Row Layer    Maximum-Flux-Residual          L2-NORM 
          0                 1           2             4    7     1       0.1170921933E-01       4    7    1         0.6125264536E+00      0.1787165571E+01
          0                 2           2             4    7     1      -0.1138990009E-02       4    7    1        -0.6125279696E-01      0.1785629929E+00
          0                 3           1             4    7     1       0.7756097712E-04       4    7    1         0.4287696207E-02      0.1248542388E-01

    ------------------------------------------------
       NWT REQUIRED            3 OUTER ITERATIONS 
       AND A TOTAL OF          5 INNER ITERATIONS.
    ------------------------------------------------

 NO OUTPUT CONTROL FOR STRESS PERIOD   40   TIME STEP   26
 
 SOLVING FOR HEAD 
                                                   Max.-Head-Change                         Max.-Flux-Residual
  Residual-Control   Outer-Iter.   Inner-Iter.     Column Row Layer    Maximum-Head-Change  Column Row Layer    Maximum-Flux-Residual          L2-NORM 
          0                 1           2             4    7     1       0.1163066477E-01       4    7    1         0.6083941535E+00      0.1774836434E+01
          0                 2           2             4    7     1      -0.1131348753E-02       4    7    1        -0.6083956433E-01      0.1773501650E+00
          0                 3           1             4    7     1       0.7704063614E-04       4    7    1         0.4258769935E-02      0.1240223226E-01

    ------------------------------------------------
       NWT REQUIRED            3 OUTER ITERATIONS 
       AND A TOTAL OF          5 INNER ITERATIONS.
    ------------------------------------------------

 NO OUTPUT CONTROL FOR STRESS PERIOD   40   TIME STEP   27
 
 SOLVING FOR HEAD 
                                                   Max.-Head-Change                         Max.-Flux-Residual
  Residual-Control   Outer-Iter.   Inner-Iter.     Column Row Layer    Maximum-Head-Change  Column Row Layer    Maximum-Flux-Residual          L2-NORM 
          0                 1           2             4    7     1       0.1155295884E-01       4    7    1         0.6043065652E+00      0.1763074207E+01
          0                 2           2             4    7     1      -0.1123790047E-02       4    7    1        -0.6043080293E-01      0.1761911686E+00
          0                 3           1             4    7     1       0.7652591651E-04       4    7    1         0.4230156631E-02      0.1232260959E-01

    ------------------------------------------------
       NWT REQUIRED            3 OUTER ITERATIONS 
       AND A TOTAL OF          5 INNER ITERATIONS.
    ------------------------------------------------

 NO OUTPUT CONTROL FOR STRESS PERIOD   40   TIME STEP   28
 
 SOLVING FOR HEAD 
                                                   Max.-Head-Change                         Max.-Flux-Residual
  Residual-Control   Outer-Iter.   Inner-Iter.     Column Row Layer    Maximum-Head-Change  Column Row Layer    Maximum-Flux-Residual          L2-NORM 
          0                 1           2             4    7     1       0.1147621961E-01       4    7    1         0.6002702975E+00      0.1751814681E+01
          0                 2           2             4    7     1      -0.1116325375E-02       4    7    1        -0.6002717366E-01      0.1750802435E+00
          0                 3           1             4    7     1       0.7601760043E-04       4    7    1         0.4201902600E-02      0.1224643428E-01

    ------------------------------------------------
       NWT REQUIRED            3 OUTER ITERATIONS 
       AND A TOTAL OF          5 INNER ITERATIONS.
    ------------------------------------------------

 NO OUTPUT CONTROL FOR STRESS PERIOD   40   TIME STEP   29
 
 SOLVING FOR HEAD 
                                                   Max.-Head-Change                         Max.-Flux-Residual
  Residual-Control   Outer-Iter.   Inner-Iter.     Column Row Layer    Maximum-Head-Change  Column Row Layer    Maximum-Flux-Residual          L2-NORM 
          0                 1           2             4    7     1       0.1140042442E-01       4    7    1         0.5962841511E+00      0.1741009888E+01
          0                 2           2             4    7     1      -0.1108952533E-02       4    7    1        -0.5962855658E-01      0.1740125848E+00
          0                 3           1             4    7     1       0.7551553784E-04       4    7    1         0.4173999432E-02      0.1217276883E-01

    ------------------------------------------------
       NWT REQUIRED            3 OUTER ITERATIONS 
       AND A TOTAL OF          5 INNER ITERATIONS.
    ------------------------------------------------

 NO OUTPUT CONTROL FOR STRESS PERIOD   40   TIME STEP   30



 STREAM LISTING     PERIOD     40   STEP       30

 LAYER ROW COL. STREAM  RCH.  FLOW INTO     FLOW TO   FLOW OUT OF   OVRLND.     DIRECT     STREAM       STREAM     STREAM     STREAM   STREAMBED  STREAMBED
                SEG.NO.  NO.  STRM. RCH.    AQUIFER    STRM. RCH.    RUNOFF     PRECIP       ET          HEAD       DEPTH      WIDTH   CONDCTNC.   GRADIENT

   1    1    1     1     1    7.3498E+01  4.1744E-01   7.3080E+01  0.000E+00  0.000E+00  0.000E+00  1.09473E+03  1.681E+00  1.982E+01  8.917E-02  1.560E+00
   1    2    2     1     2    7.3080E+01  6.4665E-01   7.2434E+01  0.000E+00  0.000E+00  0.000E+00  1.08973E+03  1.675E+00  1.976E+01  1.383E-01  1.558E+00
   1    3    3     1     3    7.2434E+01  5.5165E-01   7.1882E+01  0.000E+00  0.000E+00  0.000E+00  1.08409E+03  1.669E+00  1.969E+01  1.182E-01  1.556E+00
   1    3    4     1     4    7.1882E+01  5.0813E-01   7.1374E+01  0.000E+00  0.000E+00  0.000E+00  1.07907E+03  1.663E+00  1.963E+01  1.090E-01  1.554E+00
   1    4    5     2     1    6.9374E+01  4.0746E-01   6.8966E+01  0.000E+00  0.000E+00  0.000E+00  1.07416E+03  2.224E+00  1.200E+01  7.800E-02  1.741E+00
   1    5    6     2     2    6.8966E+01  3.1301E-01   6.8653E+01  0.000E+00  0.000E+00  0.000E+00  1.06873E+03  2.217E+00  1.200E+01  6.000E-02  1.739E+00
   1    6    6     2     3    6.8653E+01  3.1265E-01   6.8341E+01  0.000E+00  0.000E+00  0.000E+00  1.06400E+03  2.211E+00  1.200E+01  6.000E-02  1.737E+00
   1    7    6     2     4    6.8341E+01  3.1228E-01   6.8028E+01  0.000E+00  0.000E+00  0.000E+00  1.05928E+03  2.205E+00  1.200E+01  6.000E-02  1.735E+00
   1    8    6     2     5    6.8028E+01  3.1192E-01   6.7717E+01  0.000E+00  0.000E+00  0.000E+00  1.05456E+03  2.199E+00  1.200E+01  6.000E-02  1.733E+00
   1    3    5     3     1    2.0000E+00  2.8252E-01   1.7175E+00  0.000E+00  0.000E+00  0.000E+00  1.07555E+03  1.909E+00  9.636E+00  7.227E-02  1.955E+00
   1    3    6     3     2    1.7175E+00  2.4905E-01   1.4684E+00  0.000E+00  0.000E+00  0.000E+00  1.07264E+03  1.727E+00  8.909E+00  6.682E-02  1.864E+00
   1    3    7     3     3    1.4684E+00  1.9718E-01   1.2712E+00  0.000E+00  0.000E+00  0.000E+00  1.06987E+03  1.555E+00  8.218E+00  5.547E-02  1.777E+00
   1    4    8     3     4    1.2712E+00  2.2567E-01   1.0456E+00  0.000E+00  0.000E+00  0.000E+00  1.06682E+03  1.364E+00  7.455E+00  6.709E-02  1.682E+00
   1    5    8     3     5    1.0456E+00  1.5790E-01   8.8768E-01  0.000E+00  0.000E+00  0.000E+00  1.06362E+03  1.164E+00  6.655E+00  4.991E-02  1.582E+00
   1    6    8     3     6    8.8768E-01  5.5980E-02   8.3170E-01  0.000E+00  0.000E+00  0.000E+00  1.06158E+03  1.036E+00  6.145E+00  1.844E-02  1.518E+00
   1    5   10     4     1    1.0000E+01  9.0919E-02   9.9091E+00  0.000E+00  0.000E+00  0.000E+00  1.07836E+03  6.368E-01  1.000E+01  2.500E-02  1.212E+00
   1    5    9     4     2    9.9091E+00  1.8158E-01   9.7275E+00  0.000E+00  0.000E+00  0.000E+00  1.07154E+03  6.315E-01  1.000E+01  5.000E-02  1.211E+00
   1    6    8     4     3    9.7275E+00  1.2689E-01   9.6006E+00  0.000E+00  0.000E+00  0.000E+00  1.06381E+03  6.256E-01  1.000E+01  3.500E-02  1.209E+00
   1    6    8     5     1    1.0432E+01  2.2686E-01   1.0205E+01  0.000E+00  0.000E+00  0.000E+00  1.05868E+03  6.790E-01  1.542E+01  6.166E-02  1.226E+00
   1    7    7     5     2    1.0205E+01  2.7894E-01   9.9265E+00  0.000E+00  0.000E+00  0.000E+00  1.05417E+03  6.732E-01  1.519E+01  7.594E-02  1.224E+00
   1    8    7     5     3    9.9265E+00  1.9221E-01   9.7343E+00  0.000E+00  0.000E+00  0.000E+00  1.04992E+03  6.676E-01  1.497E+01  5.241E-02  1.223E+00
   1    8    6     5     4    9.7343E+00  1.3577E-01   9.5985E+00  0.000E+00  0.000E+00  0.000E+00  1.04691E+03  6.637E-01  1.482E+01  3.706E-02  1.221E+00
   1    9    6     6     1    7.7315E+01  3.2406E-01   7.6991E+01  0.000E+00  0.000E+00  0.000E+00  1.04513E+03  2.401E+00  1.200E+01  6.000E-02  1.800E+00
   1   10    7     6     2    7.6991E+01  3.2369E-01   7.6667E+01  0.000E+00  0.000E+00  0.000E+00  1.04058E+03  2.395E+00  1.200E+01  6.000E-02  1.798E+00
   1   11    7     6     3    7.6667E+01  3.2333E-01   7.6344E+01  0.000E+00  0.000E+00  0.000E+00  1.03603E+03  2.389E+00  1.200E+01  6.000E-02  1.796E+00
   1   12    7     6     4    7.6344E+01  3.2297E-01   7.6021E+01  0.000E+00  0.000E+00  0.000E+00  1.03147E+03  2.383E+00  1.200E+01  6.000E-02  1.794E+00
   1   13    7     6     5    7.6021E+01  3.8745E-02   7.5982E+01  0.000E+00  0.000E+00  0.000E+00  1.02829E+03  2.379E+00  1.200E+01  2.400E-02  5.381E-01
   1   14    9     7     1    1.5000E+02  1.3676E+00   1.4863E+02  0.000E+00  0.000E+00  0.000E+00  1.03987E+03  2.288E+00  5.529E+01  5.593E-01  8.151E-01
   1   13    8     7     2    1.4863E+02  1.9566E+00   1.4668E+02  0.000E+00  0.000E+00  0.000E+00  1.03478E+03  2.279E+00  5.525E+01  6.147E-01  1.061E+00
   1   13    7     7     3    1.4668E+02  1.6832E+00   1.4499E+02  0.000E+00  0.000E+00  0.000E+00  1.02969E+03  2.269E+00  5.521E+01  5.584E-01  1.005E+00
   1   13    6     8     1    2.2097E+02  1.3637E+00   2.1961E+02  0.000E+00  0.000E+00  0.000E+00  1.02513E+03  3.254E+00  4.718E+01  4.807E-01  9.456E-01
   1   13    5     8     2    2.1961E+02  5.2108E-01   2.1909E+02  0.000E+00  0.000E+00  0.000E+00  1.01887E+03  3.248E+00  4.710E+01  4.800E-01  3.619E-01
   1   13    4     8     3    2.1909E+02 -1.4350E+00   2.2053E+02  0.000E+00  0.000E+00  0.000E+00  1.01263E+03  3.251E+00  4.714E+01  4.803E+00 -9.958E-02
   1   13    3     8     4    2.2053E+02 -3.1309E+00   2.2366E+02  0.000E+00  0.000E+00  0.000E+00  1.00639E+03  3.263E+00  4.732E+01  4.822E+00 -2.164E-01
   1   13    2     8     5    2.2366E+02 -2.3339E+00   2.2599E+02  0.000E+00  0.000E+00  0.000E+00  1.00015E+03  3.278E+00  4.754E+01  4.844E+00 -1.606E-01
   1   13    1     8     6    2.2599E+02 -1.7999E+00   2.2779E+02  0.000E+00  0.000E+00  0.000E+00  9.95165E+02  3.290E+00  4.770E+01  2.917E+00 -2.057E-01
   1    8    6     9     1    0.0000E+00  0.0000E+00   0.0000E+00  0.000E+00  0.000E+00  0.000E+00  1.07875E+03  0.000E+00  4.000E+00  0.000E+00  1.000E+00
   1    8    5     9     2    0.0000E+00  0.0000E+00   0.0000E+00  0.000E+00  0.000E+00  0.000E+00  1.07825E+03  0.000E+00  4.000E+00  0.000E+00  1.000E+00





UNSATURATED ZONE PACKAGE VOLUMETRIC BUDGET FOR  TIME STEP    30 STRESS PERIOD   40
  ------------------------------------------------------------------------------



     CUMULATIVE VOLUMES      L**3       RATES FOR THIS TIME STEP      L**3/T
     ------------------                 ------------------------

           IN:                                      IN:
           ---                                      ---
        INFILTRATION =  1290779095.0677          INFILTRATION =           0.8475

          OUT:                                     OUT:
          ----                                     ----
              UZF ET =  1288690050.9160                UZF ET =           0.7500
        UZF RECHARGE =       73224.0000          UZF RECHARGE =       0.0000E+00

            IN - OUT =     2015820.1517              IN - OUT =       9.7500E-02

          STORAGE:                                 STORAGE:
          --------                                 --------
      STORAGE CHANGE =     2015820.2889        STORAGE CHANGE =       9.7500E-02

 PERCENT DISCREPANCY IS DIFFERENCE BETWEEN IN-OUT MINUS CHANGE IN STORAGE
 DIVIDED BY THE AVERAGE OF IN AND OUT TIMES 100

 PERCENT DISCREPANCY =           0.00     PERCENT DISCREPANCY =           0.00






1
  VOLUMETRIC BUDGET FOR AGRICULTURAL FIELDS AT  END OF TIME STEP   30, STRESS PERIOD  40
  ------------------------------------------------------------------------------

     CUMULATIVE VOLUMES      L**3       RATES FOR THIS TIME STEP      L**3/T
     ------------------                 ------------------------

           IN:                                      IN:
           ---                                      ---
               AG WELLS  =  1203775104.0000                 AG WELLS  =           0.0000
      DIVERSION SEGMENTS =           0.0000        DIVERSION SEGMENTS =           0.0000
       IRRIGATION PONDS  =           0.0000         IRRIGATION PONDS  =           0.0000
           GW IRRIGATION =           0.0000             GW IRRIGATION =           0.0000
           SW IRRIGATION =           0.0000             SW IRRIGATION =           0.0000
        SYSTEM LOSSES GW =           0.0000          SYSTEM LOSSES GW =           0.0000
        SYSTEM LOSSES SW =           0.0000          SYSTEM LOSSES SW =           0.0000

                TOTAL IN =  1203775104.0000                  TOTAL IN =           0.0000

          OUT:                                     OUT:
          ----                                     ----
               AG WELLS  =           0.0000                 AG WELLS  =           0.0000
      DIVERSION SEGMENTS =           0.0000        DIVERSION SEGMENTS =           0.0000
       IRRIGATION PONDS  =           0.0000         IRRIGATION PONDS  =           0.0000
           GW IRRIGATION =  1203775104.0000             GW IRRIGATION =           0.0000
           SW IRRIGATION =           0.0000             SW IRRIGATION =           0.0000
        SYSTEM LOSSES GW =           0.0000          SYSTEM LOSSES GW =           0.0000
        SYSTEM LOSSES SW =           0.0000          SYSTEM LOSSES SW =           0.0000

               TOTAL OUT =  1203775104.0000                 TOTAL OUT =           0.0000

                IN - OUT =           0.0000                  IN - OUT =           0.0000

     PERCENT DISCREPANCY =           0.00         PERCENT DISCREPANCY =           0.00



1
  VOLUMETRIC BUDGET FOR ENTIRE MODEL AT END OF TIME STEP   30, STRESS PERIOD  40
  ------------------------------------------------------------------------------

     CUMULATIVE VOLUMES      L**3       RATES FOR THIS TIME STEP      L**3/T
     ------------------                 ------------------------

           IN:                                      IN:
           ---                                      ---
             STORAGE     =  1687720320.0000               STORAGE     =           3.1375
       CONSTANT HEAD     =           0.0000         CONSTANT HEAD     =           0.0000
     HEAD DEP BOUNDS     =    29390022.0000       HEAD DEP BOUNDS     =           0.2879
      STREAM LEAKAGE     =  1266126208.0000        STREAM LEAKAGE     =          14.4077
        UZF RECHARGE     =       73223.9531          UZF RECHARGE     =           0.0000
               GW ET     =           0.0000                 GW ET     =           0.0000
     SURFACE LEAKAGE     =           0.0000       SURFACE LEAKAGE     =           0.0000
           AG WELLS      =           0.0000             AG WELLS      =           0.0000

                TOTAL IN =  2983309824.0000                  TOTAL IN =          17.8330

          OUT:                                     OUT:
          ----                                     ----
             STORAGE     =   697796480.0000               STORAGE     =           8.8388
       CONSTANT HEAD     =           0.0000         CONSTANT HEAD     =           0.0000
     HEAD DEP BOUNDS     =    29980632.0000       HEAD DEP BOUNDS     =           0.2957
      STREAM LEAKAGE     =  1043393024.0000        STREAM LEAKAGE     =           8.6996
        UZF RECHARGE     =           0.0000          UZF RECHARGE     =           0.0000
               GW ET     =     8372857.5000                 GW ET     =       5.6595E-04
     SURFACE LEAKAGE     =           0.0000       SURFACE LEAKAGE     =           0.0000
           AG WELLS      =  1203775104.0000             AG WELLS      =           0.0000

               TOTAL OUT =  2983318016.0000                 TOTAL OUT =          17.8347

                IN - OUT =       -8192.0000                  IN - OUT =      -1.6308E-03

     PERCENT DISCREPANCY =          -0.00         PERCENT DISCREPANCY =          -0.01






         TIME SUMMARY AT END OF TIME STEP   30 IN STRESS PERIOD   40
                    SECONDS     MINUTES      HOURS       DAYS        YEARS
                    -----------------------------------------------------------
   TIME STEP LENGTH  87667.      1461.1      24.352      1.0147     2.77799E-03
 STRESS PERIOD TIME 2.63000E+06  43833.      730.56      30.440     8.33397E-02
         TOTAL TIME 1.02656E+08 1.71093E+06  28515.      1188.1      3.2530    
1
1
                            STRESS PERIOD NO.   41, LENGTH =   2630000.    
                            -----------------------------------------------

                              NUMBER OF TIME STEPS =    30

                               MULTIPLIER FOR DELT =     1.000

                            INITIAL TIME STEP SIZE =   87666.66    

 REUSING NON-PARAMETER GHB CELLS FROM LAST STRESS PERIOD

      2 GHB CELLS

 REUSING STREAM SEGMENT DATA FROM LAST STRESS PERIOD



            AREAL INFILTRATION RATE
 READING ON UNIT   19 WITH FORMAT: (FREE)              

            1           2           3           4           5           6           7           8           9          10
 ........................................................................................................................
   1   1.0000E-10  2.0000E-10   0.000       0.000       0.000       0.000       0.000       0.000       0.000       0.000    
   2   2.0000E-10  1.0000E-10  2.0000E-10   0.000       0.000      8.0000E-10  8.0000E-10  5.0000E-10   0.000       0.000    
   3    0.000      5.0000E-10  1.0000E-10  1.0000E-10  8.0000E-10  8.0000E-10  5.0000E-10  5.0000E-10   0.000       0.000    
   4   8.0000E-10  5.0000E-10  1.0000E-10  1.0000E-10  1.0000E-10  1.0000E-10  1.0000E-10  1.0000E-10  2.0000E-10   0.000    
   5   8.0000E-10  5.0000E-10  1.0000E-10  1.0000E-10  1.0000E-10  1.0000E-10  1.0000E-10  1.0000E-10  1.0000E-10  1.0000E-10
   6   8.0000E-10  5.0000E-10  5.0000E-10  2.0000E-10  2.0000E-10  1.0000E-10  1.0000E-10  1.0000E-10  1.0000E-10  5.0000E-10
   7   8.0000E-10  5.0000E-10  5.0000E-10  2.0000E-10  2.0000E-10  1.0000E-10  1.0000E-10  2.0000E-10  2.0000E-10   0.000    
   8    0.000      5.0000E-10  5.0000E-10  2.0000E-10  2.0000E-10  1.0000E-10  1.0000E-10  2.0000E-10  5.0000E-10   0.000    
   9    0.000      5.0000E-10  5.0000E-10  2.0000E-10  2.0000E-10  1.0000E-10  1.0000E-10  2.0000E-10  5.0000E-10   0.000    
  10    0.000      5.0000E-10  5.0000E-10  2.0000E-10  2.0000E-10  1.0000E-10  1.0000E-10  2.0000E-10  5.0000E-10  8.0000E-10
  11    0.000      1.0000E-10  1.0000E-10  1.0000E-10  1.0000E-10  1.0000E-10  1.0000E-10  2.0000E-10  5.0000E-10   0.000    
  12   1.0000E-10  1.0000E-10  1.0000E-10  1.0000E-10  1.0000E-10  1.0000E-10  1.0000E-10  1.0000E-10  2.0000E-10   0.000    
  13   1.0000E-10  1.0000E-10  2.0000E-10  2.0000E-10  2.0000E-10  2.0000E-10  2.0000E-10  1.0000E-10  1.0000E-10   0.000    
  14    0.000      2.0000E-10  5.0000E-10  5.0000E-10  5.0000E-10  5.0000E-10  5.0000E-10  2.0000E-10  1.0000E-10   0.000    
  15    0.000       0.000      8.0000E-10  8.0000E-10  8.0000E-10  8.0000E-10   0.000       0.000       0.000       0.000    

                  ET RATE =  2.500000E-08

 USING ET EXTINCTION DEPTH FROM PREVIOUS STRESS PERIOD. CURRENT PERIOD IS:      41

 USING EXTINCTION WATER CONTENT FROM PREVIOUS STRESS PERIOD. CURRENT PERIOD IS:      41

 USING AIR ENTRY PRESSURE FROM PREVIOUS STRESS PERIOD. CURRENT PERIOD IS:      41

 USING ROOT PRESSURE HEAD FROM PREVIOUS STRESS PERIOD. CURRENT PERIOD IS:      41

 USING ROOT ACTIVITY FROM PREVIOUS STRESS PERIOD. CURRENT PERIOD IS:      41

 PROCESSING AG STRESS PERIOD DATA

 READING AG STRESS PERIOD DATA

 READING IRRIGATION SEGMENT

 READING IRRIGATION WELL

 READING SUPPLEMENTAL WELL

 NO IRRPOND OR REUSING IRRPOND DATA FROM LAST STRESS PERIOD

 END PROCESSING AG STRESS PERIOD DATA OPTIONS
 
 SOLVING FOR HEAD 
                                                   Max.-Head-Change                         Max.-Flux-Residual
  Residual-Control   Outer-Iter.   Inner-Iter.     Column Row Layer    Maximum-Head-Change  Column Row Layer    Maximum-Flux-Residual          L2-NORM 
          0                 1           2             4    7     1       0.1132555114E-01       4    7    1         0.5923469517E+00      0.1728972180E+01
          0                 2           2             4    7     1      -0.1101669370E-02       4    7    1        -0.5923483427E-01      0.1728372370E+00
          0                 3           1             4    7     1       0.7501958178E-04       4    7    1         0.4146438880E-02      0.1209301275E-01

    ------------------------------------------------
       NWT REQUIRED            3 OUTER ITERATIONS 
       AND A TOTAL OF          5 INNER ITERATIONS.
    ------------------------------------------------

 NO OUTPUT CONTROL FOR STRESS PERIOD   41   TIME STEP    1
 
 SOLVING FOR HEAD 
                                                   Max.-Head-Change                         Max.-Flux-Residual
  Residual-Control   Outer-Iter.   Inner-Iter.     Column Row Layer    Maximum-Head-Change  Column Row Layer    Maximum-Flux-Residual          L2-NORM 
          0                 1           2             4    7     1       0.1125158004E-01       4    7    1         0.5884575521E+00      0.1719127257E+01
          0                 2           2             4    7     1      -0.1094473964E-02       4    7    1        -0.5884589197E-01      0.1718602752E+00
          0                 3           1             4    7     1       0.7452960149E-04       4    7    1         0.4119212925E-02      0.1202539603E-01

    ------------------------------------------------
       NWT REQUIRED            3 OUTER ITERATIONS 
       AND A TOTAL OF          5 INNER ITERATIONS.
    ------------------------------------------------

 NO OUTPUT CONTROL FOR STRESS PERIOD   41   TIME STEP    2
 
 SOLVING FOR HEAD 
                                                   Max.-Head-Change                         Max.-Flux-Residual
  Residual-Control   Outer-Iter.   Inner-Iter.     Column Row Layer    Maximum-Head-Change  Column Row Layer    Maximum-Flux-Residual          L2-NORM 
          0                 1           2             4    7     1       0.1117835728E-01       4    7    1         0.5846076072E+00      0.1709574170E+01
          0                 2           2             4    7     1      -0.1087351353E-02       4    7    1        -0.5846089519E-01      0.1709115137E+00
          0                 3           1             4    7     1       0.7404457890E-04       4    7    1         0.4092263164E-02      0.1195960101E-01

    ------------------------------------------------
       NWT REQUIRED            3 OUTER ITERATIONS 
       AND A TOTAL OF          5 INNER ITERATIONS.
    ------------------------------------------------

 NO OUTPUT CONTROL FOR STRESS PERIOD   41   TIME STEP    3
 
 SOLVING FOR HEAD 
                                                   Max.-Head-Change                         Max.-Flux-Residual
  Residual-Control   Outer-Iter.   Inner-Iter.     Column Row Layer    Maximum-Head-Change  Column Row Layer    Maximum-Flux-Residual          L2-NORM 
          0                 1           2             4    7     1       0.1110613303E-01       4    7    1         0.5808111055E+00      0.1693921856E+01
          0                 2           2             4    7     1      -0.1080325869E-02       4    7    1        -0.5808124283E-01      0.1693736061E+00
          0                 3           1             4    7     1       0.7356616944E-04       4    7    1         0.4065687496E-02      0.1185446518E-01

    ------------------------------------------------
       NWT REQUIRED            3 OUTER ITERATIONS 
       AND A TOTAL OF          5 INNER ITERATIONS.
    ------------------------------------------------

 NO OUTPUT CONTROL FOR STRESS PERIOD   41   TIME STEP    4
 
 SOLVING FOR HEAD 
                                                   Max.-Head-Change                         Max.-Flux-Residual
  Residual-Control   Outer-Iter.   Inner-Iter.     Column Row Layer    Maximum-Head-Change  Column Row Layer    Maximum-Flux-Residual          L2-NORM 
          0                 1           2             4    7     1       0.1103452977E-01       4    7    1         0.5770517313E+00      0.1732344249E+01
          0                 2           2             4    7     1      -0.1073360794E-02       4    7    1        -0.5770530331E-01      0.1727943400E+00
          0                 3           1             4    7     1       0.7309187372E-04       4    7    1         0.4039371754E-02      0.1205545573E-01

    ------------------------------------------------
       NWT REQUIRED            3 OUTER ITERATIONS 
       AND A TOTAL OF          5 INNER ITERATIONS.
    ------------------------------------------------

 NO OUTPUT CONTROL FOR STRESS PERIOD   41   TIME STEP    5
 
 SOLVING FOR HEAD 
                                                   Max.-Head-Change                         Max.-Flux-Residual
  Residual-Control   Outer-Iter.   Inner-Iter.     Column Row Layer    Maximum-Head-Change  Column Row Layer    Maximum-Flux-Residual          L2-NORM 
          0                 1           2             4    7     1       0.1096380948E-01       4    7    1         0.5733391963E+00      0.1709912632E+01
          0                 2           2             4    7     1      -0.1066481608E-02       4    7    1        -0.5733404779E-01      0.1706223307E+00
          0                 3           1             4    7     1       0.7262342703E-04       4    7    1         0.4013383857E-02      0.1190992413E-01

    ------------------------------------------------
       NWT REQUIRED            3 OUTER ITERATIONS 
       AND A TOTAL OF          5 INNER ITERATIONS.
    ------------------------------------------------

 NO OUTPUT CONTROL FOR STRESS PERIOD   41   TIME STEP    6
 
 SOLVING FOR HEAD 
                                                   Max.-Head-Change                         Max.-Flux-Residual
  Residual-Control   Outer-Iter.   Inner-Iter.     Column Row Layer    Maximum-Head-Change  Column Row Layer    Maximum-Flux-Residual          L2-NORM 
          0                 1           2             4    7     1       0.1089368672E-01       4    7    1         0.5696577987E+00      0.1690152206E+01
          0                 2           2             4    7     1      -0.1059660546E-02       4    7    1        -0.5696590601E-01      0.1687071519E+00
          0                 3           1             4    7     1       0.7215893845E-04       4    7    1         0.3987613949E-02      0.1178155653E-01

    ------------------------------------------------
       NWT REQUIRED            3 OUTER ITERATIONS 
       AND A TOTAL OF          5 INNER ITERATIONS.
    ------------------------------------------------

 NO OUTPUT CONTROL FOR STRESS PERIOD   41   TIME STEP    7
 
 SOLVING FOR HEAD 
                                                   Max.-Head-Change                         Max.-Flux-Residual
  Residual-Control   Outer-Iter.   Inner-Iter.     Column Row Layer    Maximum-Head-Change  Column Row Layer    Maximum-Flux-Residual          L2-NORM 
          0                 1           2             4    7     1       0.1082429400E-01       4    7    1         0.5660147037E+00      0.1672619276E+01
          0                 2           2             4    7     1      -0.1052910497E-02       4    7    1        -0.5660159454E-01      0.1670039340E+00
          0                 3           1             4    7     1       0.7169928559E-04       4    7    1         0.3962112160E-02      0.1166667832E-01

    ------------------------------------------------
       NWT REQUIRED            3 OUTER ITERATIONS 
       AND A TOTAL OF          5 INNER ITERATIONS.
    ------------------------------------------------

 NO OUTPUT CONTROL FOR STRESS PERIOD   41   TIME STEP    8
 
 SOLVING FOR HEAD 
                                                   Max.-Head-Change                         Max.-Flux-Residual
  Residual-Control   Outer-Iter.   Inner-Iter.     Column Row Layer    Maximum-Head-Change  Column Row Layer    Maximum-Flux-Residual          L2-NORM 
          0                 1           2             4    7     1       0.1075575061E-01       4    7    1         0.5624167817E+00      0.1656929194E+01
          0                 2           2             4    7     1      -0.1046243066E-02       4    7    1        -0.5624180042E-01      0.1654773512E+00
          0                 3           1             4    7     1       0.7124525868E-04       4    7    1         0.3936926590E-02      0.1156394889E-01

    ------------------------------------------------
       NWT REQUIRED            3 OUTER ITERATIONS 
       AND A TOTAL OF          5 INNER ITERATIONS.
    ------------------------------------------------

 NO OUTPUT CONTROL FOR STRESS PERIOD   41   TIME STEP    9
 
 SOLVING FOR HEAD 
                                                   Max.-Head-Change                         Max.-Flux-Residual
  Residual-Control   Outer-Iter.   Inner-Iter.     Column Row Layer    Maximum-Head-Change  Column Row Layer    Maximum-Flux-Residual          L2-NORM 
          0                 1           2             4    7     1       0.1068777318E-01       4    7    1         0.5588482522E+00      0.1642778400E+01
          0                 2           2             4    7     1      -0.1039630687E-02       4    7    1        -0.5588494557E-01      0.1640977756E+00
          0                 3           1             4    7     1       0.7079498021E-04       4    7    1         0.3911946740E-02      0.1147064922E-01

    ------------------------------------------------
       NWT REQUIRED            3 OUTER ITERATIONS 
       AND A TOTAL OF          5 INNER ITERATIONS.
    ------------------------------------------------

 NO OUTPUT CONTROL FOR STRESS PERIOD   41   TIME STEP   10
 
 SOLVING FOR HEAD 
                                                   Max.-Head-Change                         Max.-Flux-Residual
  Residual-Control   Outer-Iter.   Inner-Iter.     Column Row Layer    Maximum-Head-Change  Column Row Layer    Maximum-Flux-Residual          L2-NORM 
          0                 1           2             4    7     1       0.1062049522E-01       4    7    1         0.5553163889E+00      0.1629918623E+01
          0                 2           2             4    7     1      -0.1033086348E-02       4    7    1        -0.5553175738E-01      0.1628412367E+00
          0                 3           1             4    7     1       0.7034933545E-04       4    7    1         0.3887223571E-02      0.1138522143E-01

    ------------------------------------------------
       NWT REQUIRED            3 OUTER ITERATIONS 
       AND A TOTAL OF          5 INNER ITERATIONS.
    ------------------------------------------------

 NO OUTPUT CONTROL FOR STRESS PERIOD   41   TIME STEP   11
 
 SOLVING FOR HEAD 
                                                   Max.-Head-Change                         Max.-Flux-Residual
  Residual-Control   Outer-Iter.   Inner-Iter.     Column Row Layer    Maximum-Head-Change  Column Row Layer    Maximum-Flux-Residual          L2-NORM 
          0                 1           2             4    7     1       0.1055390143E-01       4    7    1         0.5518207916E+00      0.1618115627E+01
          0                 2           2             4    7     1      -0.1026608562E-02       4    7    1        -0.5518219584E-01      0.1616855867E+00
          0                 3           1             4    7     1       0.6990822238E-04       4    7    1         0.3862754273E-02      0.1130823300E-01

    ------------------------------------------------
       NWT REQUIRED            3 OUTER ITERATIONS 
       AND A TOTAL OF          5 INNER ITERATIONS.
    ------------------------------------------------

 NO OUTPUT CONTROL FOR STRESS PERIOD   41   TIME STEP   12
 
 SOLVING FOR HEAD 
                                                   Max.-Head-Change                         Max.-Flux-Residual
  Residual-Control   Outer-Iter.   Inner-Iter.     Column Row Layer    Maximum-Head-Change  Column Row Layer    Maximum-Flux-Residual          L2-NORM 
          0                 1           2             4    7     1       0.1048811917E-01       4    7    1         0.5483679906E+00      0.1607211439E+01
          0                 2           2             4    7     1      -0.1020209715E-02       4    7    1        -0.5483691395E-01      0.1606157286E+00
          0                 3           1             4    7     1       0.6947248476E-04       4    7    1         0.3838584540E-02      0.1123344880E-01

    ------------------------------------------------
       NWT REQUIRED            3 OUTER ITERATIONS 
       AND A TOTAL OF          5 INNER ITERATIONS.
    ------------------------------------------------

 NO OUTPUT CONTROL FOR STRESS PERIOD   41   TIME STEP   13
 
 SOLVING FOR HEAD 
                                                   Max.-Head-Change                         Max.-Flux-Residual
  Residual-Control   Outer-Iter.   Inner-Iter.     Column Row Layer    Maximum-Head-Change  Column Row Layer    Maximum-Flux-Residual          L2-NORM 
          0                 1           2             4    7     1       0.1042286235E-01       4    7    1         0.5449426201E+00      0.1597045946E+01
          0                 2           2             4    7     1      -0.1013861979E-02       4    7    1        -0.5449437514E-01      0.1596164391E+00
          0                 3           1             4    7     1       0.6904022789E-04       4    7    1         0.3814606848E-02      0.1116517433E-01

    ------------------------------------------------
       NWT REQUIRED            3 OUTER ITERATIONS 
       AND A TOTAL OF          5 INNER ITERATIONS.
    ------------------------------------------------

 NO OUTPUT CONTROL FOR STRESS PERIOD   41   TIME STEP   14
 
 SOLVING FOR HEAD 
                                                   Max.-Head-Change                         Max.-Flux-Residual
  Residual-Control   Outer-Iter.   Inner-Iter.     Column Row Layer    Maximum-Head-Change  Column Row Layer    Maximum-Flux-Residual          L2-NORM 
          0                 1           2             4    7     1       0.1035826349E-01       4    7    1         0.5415518156E+00      0.1587509202E+01
          0                 2           2             4    7     1      -0.1007578246E-02       4    7    1        -0.5415529298E-01      0.1586775041E+00
          0                 3           1             4    7     1       0.6861232901E-04       4    7    1         0.3790871082E-02      0.1110107147E-01

    ------------------------------------------------
       NWT REQUIRED            3 OUTER ITERATIONS 
       AND A TOTAL OF          5 INNER ITERATIONS.
    ------------------------------------------------

 NO OUTPUT CONTROL FOR STRESS PERIOD   41   TIME STEP   15
 
 SOLVING FOR HEAD 
                                                   Max.-Head-Change                         Max.-Flux-Residual
  Residual-Control   Outer-Iter.   Inner-Iter.     Column Row Layer    Maximum-Head-Change  Column Row Layer    Maximum-Flux-Residual          L2-NORM 
          0                 1           2             4    7     1       0.1029431114E-01       4    7    1         0.5381951252E+00      0.1578503325E+01
          0                 2           2             4    7     1      -0.1001357401E-02       4    7    1        -0.5381962225E-01      0.1577884945E+00
          0                 3           1             4    7     1       0.6818871284E-04       4    7    1         0.3767374152E-02      0.1103959771E-01

    ------------------------------------------------
       NWT REQUIRED            3 OUTER ITERATIONS 
       AND A TOTAL OF          5 INNER ITERATIONS.
    ------------------------------------------------

 NO OUTPUT CONTROL FOR STRESS PERIOD   41   TIME STEP   16
 
 SOLVING FOR HEAD 
                                                   Max.-Head-Change                         Max.-Flux-Residual
  Residual-Control   Outer-Iter.   Inner-Iter.     Column Row Layer    Maximum-Head-Change  Column Row Layer    Maximum-Flux-Residual          L2-NORM 
          0                 1           2             4    7     1       0.1023113030E-01       4    7    1         0.5348792788E+00      0.1569940332E+01
          0                 2           2             4    7     1      -0.9952116034E-03       4    7    1        -0.5348803596E-01      0.1569424750E+00
          0                 3           1             4    7     1       0.6777020693E-04       4    7    1         0.3744163122E-02      0.1098141308E-01

    ------------------------------------------------
       NWT REQUIRED            3 OUTER ITERATIONS 
       AND A TOTAL OF          5 INNER ITERATIONS.
    ------------------------------------------------

 NO OUTPUT CONTROL FOR STRESS PERIOD   41   TIME STEP   17
 
 SOLVING FOR HEAD 
                                                   Max.-Head-Change                         Max.-Flux-Residual
  Residual-Control   Outer-Iter.   Inner-Iter.     Column Row Layer    Maximum-Head-Change  Column Row Layer    Maximum-Flux-Residual          L2-NORM 
          0                 1           2             4    7     1       0.1016843774E-01       4    7    1         0.5315887867E+00      0.1561757501E+01
          0                 2           2             4    7     1      -0.9891133025E-03       4    7    1        -0.5315898511E-01      0.1561322833E+00
          0                 3           1             4    7     1       0.6735493563E-04       4    7    1         0.3721129552E-02      0.1092522530E-01

    ------------------------------------------------
       NWT REQUIRED            3 OUTER ITERATIONS 
       AND A TOTAL OF          5 INNER ITERATIONS.
    ------------------------------------------------

 NO OUTPUT CONTROL FOR STRESS PERIOD   41   TIME STEP   18
 
 SOLVING FOR HEAD 
                                                   Max.-Head-Change                         Max.-Flux-Residual
  Residual-Control   Outer-Iter.   Inner-Iter.     Column Row Layer    Maximum-Head-Change  Column Row Layer    Maximum-Flux-Residual          L2-NORM 
          0                 1           2             4    7     1       0.1010649934E-01       4    7    1         0.5283382588E+00      0.1553899752E+01
          0                 2           2             4    7     1      -0.9830883616E-03       4    7    1        -0.5283393075E-01      0.1553534798E+00
          0                 3           1             4    7     1       0.6694465967E-04       4    7    1         0.3698375764E-02      0.1087145485E-01

    ------------------------------------------------
       NWT REQUIRED            3 OUTER ITERATIONS 
       AND A TOTAL OF          5 INNER ITERATIONS.
    ------------------------------------------------

 NO OUTPUT CONTROL FOR STRESS PERIOD   41   TIME STEP   19
 
 SOLVING FOR HEAD 
                                                   Max.-Head-Change                         Max.-Flux-Residual
  Residual-Control   Outer-Iter.   Inner-Iter.     Column Row Layer    Maximum-Head-Change  Column Row Layer    Maximum-Flux-Residual          L2-NORM 
          0                 1           2             4    7     1       0.1004503128E-01       4    7    1         0.5251121848E+00      0.1546315155E+01
          0                 2           2             4    7     1      -0.9771091721E-03       4    7    1        -0.5251132178E-01      0.1546009850E+00
          0                 3           1             4    7     1       0.6653749940E-04       4    7    1         0.3675793143E-02      0.1081926774E-01

    ------------------------------------------------
       NWT REQUIRED            3 OUTER ITERATIONS 
       AND A TOTAL OF          5 INNER ITERATIONS.
    ------------------------------------------------

 NO OUTPUT CONTROL FOR STRESS PERIOD   41   TIME STEP   20
 
 SOLVING FOR HEAD 
                                                   Max.-Head-Change                         Max.-Flux-Residual
  Residual-Control   Outer-Iter.   Inner-Iter.     Column Row Layer    Maximum-Head-Change  Column Row Layer    Maximum-Flux-Residual          L2-NORM 
          0                 1           2             4    7     1       0.9984300290E-02       4    7    1         0.5219251453E+00      0.1538974671E+01
          0                 2           2             4    7     1      -0.9712016799E-03       4    7    1        -0.5219261629E-01      0.1538717297E+00
          0                 3           1             4    7     1       0.6613522134E-04       4    7    1         0.3653483755E-02      0.1076863943E-01

    ------------------------------------------------
       NWT REQUIRED            3 OUTER ITERATIONS 
       AND A TOTAL OF          5 INNER ITERATIONS.
    ------------------------------------------------

 NO OUTPUT CONTROL FOR STRESS PERIOD   41   TIME STEP   21
 
 SOLVING FOR HEAD 
                                                   Max.-Head-Change                         Max.-Flux-Residual
  Residual-Control   Outer-Iter.   Inner-Iter.     Column Row Layer    Maximum-Head-Change  Column Row Layer    Maximum-Flux-Residual          L2-NORM 
          0                 1           2             4    7     1       0.9924156117E-02       4    7    1         0.5187689976E+00      0.1531843521E+01
          0                 2           2             4    7     1      -0.9653512695E-03       4    7    1        -0.5187700001E-01      0.1531379882E+00
          0                 3           1             4    7     1       0.6573683041E-04       4    7    1         0.3631390629E-02      0.1071787870E-01

    ------------------------------------------------
       NWT REQUIRED            3 OUTER ITERATIONS 
       AND A TOTAL OF          5 INNER ITERATIONS.
    ------------------------------------------------

 NO OUTPUT CONTROL FOR STRESS PERIOD   41   TIME STEP   22
 
 SOLVING FOR HEAD 
                                                   Max.-Head-Change                         Max.-Flux-Residual
  Residual-Control   Outer-Iter.   Inner-Iter.     Column Row Layer    Maximum-Head-Change  Column Row Layer    Maximum-Flux-Residual          L2-NORM 
          0                 1           2             4    7     1       0.9864593463E-02       4    7    1         0.5156432754E+00      0.1524916109E+01
          0                 2           2             4    7     1      -0.9595574253E-03       4    7    1        -0.5156442631E-01      0.1524732322E+00
          0                 3           1             4    7     1       0.6534229121E-04       4    7    1         0.3609510473E-02      0.1067139424E-01

    ------------------------------------------------
       NWT REQUIRED            3 OUTER ITERATIONS 
       AND A TOTAL OF          5 INNER ITERATIONS.
    ------------------------------------------------

 NO OUTPUT CONTROL FOR STRESS PERIOD   41   TIME STEP   23
 
 SOLVING FOR HEAD 
                                                   Max.-Head-Change                         Max.-Flux-Residual
  Residual-Control   Outer-Iter.   Inner-Iter.     Column Row Layer    Maximum-Head-Change  Column Row Layer    Maximum-Flux-Residual          L2-NORM 
          0                 1           2             4    7     1       0.9805602903E-02       4    7    1         0.5125477039E+00      0.1518145413E+01
          0                 2           2             4    7     1      -0.9538188647E-03       4    7    1        -0.5125486771E-01      0.1517994732E+00
          0                 3           1             4    7     1       0.6495116035E-04       4    7    1         0.3587841368E-02      0.1062429353E-01

    ------------------------------------------------
       NWT REQUIRED            3 OUTER ITERATIONS 
       AND A TOTAL OF          5 INNER ITERATIONS.
    ------------------------------------------------

 NO OUTPUT CONTROL FOR STRESS PERIOD   41   TIME STEP   24
 
 SOLVING FOR HEAD 
                                                   Max.-Head-Change                         Max.-Flux-Residual
  Residual-Control   Outer-Iter.   Inner-Iter.     Column Row Layer    Maximum-Head-Change  Column Row Layer    Maximum-Flux-Residual          L2-NORM 
          0                 1           2             4    7     1       0.9747175554E-02       4    7    1         0.5094817936E+00      0.1511513294E+01
          0                 2           2             4    7     1      -0.9481467498E-03       4    7    1        -0.5094827526E-01      0.1511462289E+00
          0                 3           1             4    7     1       0.6456526659E-04       4    7    1         0.3566379892E-02      0.1057900500E-01

    ------------------------------------------------
       NWT REQUIRED            3 OUTER ITERATIONS 
       AND A TOTAL OF          5 INNER ITERATIONS.
    ------------------------------------------------

 NO OUTPUT CONTROL FOR STRESS PERIOD   41   TIME STEP   25
 
 SOLVING FOR HEAD 
                                                   Max.-Head-Change                         Max.-Flux-Residual
  Residual-Control   Outer-Iter.   Inner-Iter.     Column Row Layer    Maximum-Head-Change  Column Row Layer    Maximum-Flux-Residual          L2-NORM 
          0                 1           2             4    7     1       0.9689272931E-02       4    7    1         0.5064445057E+00      0.1504998112E+01
          0                 2           2             4    7     1      -0.9425034556E-03       4    7    1        -0.5064454511E-01      0.1504885136E+00
          0                 3           1             4    7     1       0.6418097984E-04       4    7    1         0.3545118810E-02      0.1053322177E-01

    ------------------------------------------------
       NWT REQUIRED            3 OUTER ITERATIONS 
       AND A TOTAL OF          5 INNER ITERATIONS.
    ------------------------------------------------

 NO OUTPUT CONTROL FOR STRESS PERIOD   41   TIME STEP   26
 
 SOLVING FOR HEAD 
                                                   Max.-Head-Change                         Max.-Flux-Residual
  Residual-Control   Outer-Iter.   Inner-Iter.     Column Row Layer    Maximum-Head-Change  Column Row Layer    Maximum-Flux-Residual          L2-NORM 
          0                 1           2             4    7     1       0.9631907704E-02       4    7    1         0.5034355844E+00      0.1501971746E+01
          0                 2           2             4    7     1      -0.9369233625E-03       4    7    1        -0.5034365162E-01      0.1501479408E+00
          0                 3           1             4    7     1       0.6380099594E-04       4    7    1         0.3524056250E-02      0.1050595498E-01

    ------------------------------------------------
       NWT REQUIRED            3 OUTER ITERATIONS 
       AND A TOTAL OF          5 INNER ITERATIONS.
    ------------------------------------------------

 NO OUTPUT CONTROL FOR STRESS PERIOD   41   TIME STEP   27
 
 SOLVING FOR HEAD 
                                                   Max.-Head-Change                         Max.-Flux-Residual
  Residual-Control   Outer-Iter.   Inner-Iter.     Column Row Layer    Maximum-Head-Change  Column Row Layer    Maximum-Flux-Residual          L2-NORM 
          0                 1           2             4    7     1       0.9575161160E-02       4    7    1         0.5004612706E+00      0.1532973389E+01
          0                 2           2             4    7     1      -0.9314034517E-03       4    7    1        -0.5004621891E-01      0.1529962641E+00
          0                 3           1             4    7     1       0.6342511038E-04       4    7    1         0.3503235965E-02      0.1068220516E-01

    ------------------------------------------------
       NWT REQUIRED            3 OUTER ITERATIONS 
       AND A TOTAL OF          5 INNER ITERATIONS.
    ------------------------------------------------

 NO OUTPUT CONTROL FOR STRESS PERIOD   41   TIME STEP   28
 
 SOLVING FOR HEAD 
                                                   Max.-Head-Change                         Max.-Flux-Residual
  Residual-Control   Outer-Iter.   Inner-Iter.     Column Row Layer    Maximum-Head-Change  Column Row Layer    Maximum-Flux-Residual          L2-NORM 
          0                 1           2             4    7     1       0.9518755326E-02       4    7    1         0.4975043832E+00      0.1519032386E+01
          0                 2           2             4    7     1      -0.9259166836E-03       4    7    1        -0.4975052892E-01      0.1516451500E+00
          0                 3           1             4    7     1       0.6305148233E-04       4    7    1         0.3482537680E-02      0.1059190957E-01

    ------------------------------------------------
       NWT REQUIRED            3 OUTER ITERATIONS 
       AND A TOTAL OF          5 INNER ITERATIONS.
    ------------------------------------------------

 NO OUTPUT CONTROL FOR STRESS PERIOD   41   TIME STEP   29
 
 SOLVING FOR HEAD 
                                                   Max.-Head-Change                         Max.-Flux-Residual
  Residual-Control   Outer-Iter.   Inner-Iter.     Column Row Layer    Maximum-Head-Change  Column Row Layer    Maximum-Flux-Residual          L2-NORM 
          0                 1           2             4    7     1       0.9462964531E-02       4    7    1         0.4945798119E+00      0.1506361584E+01
          0                 2           2             4    7     1      -0.9204897414E-03       4    7    1        -0.4945807052E-01      0.1504150000E+00
          0                 3           1             4    7     1       0.6268192767E-04       4    7    1         0.3462065588E-02      0.1050904207E-01

    ------------------------------------------------
       NWT REQUIRED            3 OUTER ITERATIONS 
       AND A TOTAL OF          5 INNER ITERATIONS.
    ------------------------------------------------

 NO OUTPUT CONTROL FOR STRESS PERIOD   41   TIME STEP   30



 STREAM LISTING     PERIOD     41   STEP       30

 LAYER ROW COL. STREAM  RCH.  FLOW INTO     FLOW TO   FLOW OUT OF   OVRLND.     DIRECT     STREAM       STREAM     STREAM     STREAM   STREAMBED  STREAMBED
                SEG.NO.  NO.  STRM. RCH.    AQUIFER    STRM. RCH.    RUNOFF     PRECIP       ET          HEAD       DEPTH      WIDTH   CONDCTNC.   GRADIENT

   1    1    1     1     1    4.7249E+01  3.2762E-01   4.6921E+01  0.000E+00  0.000E+00  0.000E+00  1.09443E+03  1.381E+00  1.662E+01  7.477E-02  1.460E+00
   1    2    2     1     2    4.6921E+01  5.0759E-01   4.6413E+01  0.000E+00  0.000E+00  0.000E+00  1.08944E+03  1.379E+00  1.656E+01  1.159E-01  1.460E+00
   1    3    3     1     3    4.6413E+01  4.3309E-01   4.5980E+01  0.000E+00  0.000E+00  0.000E+00  1.08379E+03  1.376E+00  1.650E+01  9.898E-02  1.459E+00
   1    3    4     1     4    4.5980E+01  3.9899E-01   4.5581E+01  0.000E+00  0.000E+00  0.000E+00  1.07878E+03  1.373E+00  1.644E+01  9.124E-02  1.458E+00
   1    4    5     2     1    4.3581E+01  3.6514E-01   4.3216E+01  0.000E+00  0.000E+00  0.000E+00  1.07362E+03  1.681E+00  1.200E+01  7.800E-02  1.560E+00
   1    5    6     2     2    4.3216E+01  2.8042E-01   4.2936E+01  0.000E+00  0.000E+00  0.000E+00  1.06818E+03  1.674E+00  1.200E+01  6.000E-02  1.558E+00
   1    6    6     2     3    4.2936E+01  2.8003E-01   4.2656E+01  0.000E+00  0.000E+00  0.000E+00  1.06346E+03  1.667E+00  1.200E+01  6.000E-02  1.556E+00
   1    7    6     2     4    4.2656E+01  2.7964E-01   4.2376E+01  0.000E+00  0.000E+00  0.000E+00  1.05874E+03  1.661E+00  1.200E+01  6.000E-02  1.554E+00
   1    8    6     2     5    4.2376E+01  2.7924E-01   4.2097E+01  0.000E+00  0.000E+00  0.000E+00  1.05401E+03  1.654E+00  1.200E+01  6.000E-02  1.551E+00
   1    3    5     3     1    2.0000E+00  2.8252E-01   1.7175E+00  0.000E+00  0.000E+00  0.000E+00  1.07555E+03  1.909E+00  9.636E+00  7.227E-02  1.955E+00
   1    3    6     3     2    1.7175E+00  2.4905E-01   1.4684E+00  0.000E+00  0.000E+00  0.000E+00  1.07264E+03  1.727E+00  8.909E+00  6.682E-02  1.864E+00
   1    3    7     3     3    1.4684E+00  1.9718E-01   1.2712E+00  0.000E+00  0.000E+00  0.000E+00  1.06987E+03  1.555E+00  8.218E+00  5.547E-02  1.777E+00
   1    4    8     3     4    1.2712E+00  2.2567E-01   1.0456E+00  0.000E+00  0.000E+00  0.000E+00  1.06682E+03  1.364E+00  7.455E+00  6.709E-02  1.682E+00
   1    5    8     3     5    1.0456E+00  1.5790E-01   8.8768E-01  0.000E+00  0.000E+00  0.000E+00  1.06362E+03  1.164E+00  6.655E+00  4.991E-02  1.582E+00
   1    6    8     3     6    8.8768E-01  5.5980E-02   8.3170E-01  0.000E+00  0.000E+00  0.000E+00  1.06158E+03  1.036E+00  6.145E+00  1.844E-02  1.518E+00
   1    5   10     4     1    1.0000E+01  9.0919E-02   9.9091E+00  0.000E+00  0.000E+00  0.000E+00  1.07836E+03  6.368E-01  1.000E+01  2.500E-02  1.212E+00
   1    5    9     4     2    9.9091E+00  1.8158E-01   9.7275E+00  0.000E+00  0.000E+00  0.000E+00  1.07154E+03  6.315E-01  1.000E+01  5.000E-02  1.211E+00
   1    6    8     4     3    9.7275E+00  1.2689E-01   9.6006E+00  0.000E+00  0.000E+00  0.000E+00  1.06381E+03  6.256E-01  1.000E+01  3.500E-02  1.209E+00
   1    6    8     5     1    1.0432E+01  2.2686E-01   1.0205E+01  0.000E+00  0.000E+00  0.000E+00  1.05868E+03  6.790E-01  1.542E+01  6.166E-02  1.226E+00
   1    7    7     5     2    1.0205E+01  2.7894E-01   9.9265E+00  0.000E+00  0.000E+00  0.000E+00  1.05417E+03  6.732E-01  1.519E+01  7.594E-02  1.224E+00
   1    8    7     5     3    9.9265E+00  1.9221E-01   9.7343E+00  0.000E+00  0.000E+00  0.000E+00  1.04992E+03  6.676E-01  1.497E+01  5.241E-02  1.223E+00
   1    8    6     5     4    9.7343E+00  1.3577E-01   9.5985E+00  0.000E+00  0.000E+00  0.000E+00  1.04691E+03  6.637E-01  1.482E+01  3.706E-02  1.221E+00
   1    9    6     6     1    5.1695E+01  2.9310E-01   5.1402E+01  0.000E+00  0.000E+00  0.000E+00  1.04461E+03  1.885E+00  1.200E+01  6.000E-02  1.628E+00
   1   10    7     6     2    5.1402E+01  2.9271E-01   5.1110E+01  0.000E+00  0.000E+00  0.000E+00  1.04006E+03  1.879E+00  1.200E+01  6.000E-02  1.626E+00
   1   11    7     6     3    5.1110E+01  2.9233E-01   5.0817E+01  0.000E+00  0.000E+00  0.000E+00  1.03551E+03  1.872E+00  1.200E+01  6.000E-02  1.624E+00
   1   12    7     6     4    5.0817E+01  2.9194E-01   5.0525E+01  0.000E+00  0.000E+00  0.000E+00  1.03096E+03  1.866E+00  1.200E+01  6.000E-02  1.622E+00
   1   13    7     6     5    5.0525E+01  2.6399E-02   5.0499E+01  0.000E+00  0.000E+00  0.000E+00  1.02777E+03  1.862E+00  1.200E+01  2.400E-02  3.667E-01
   1   14    9     7     1    1.5000E+02  1.3695E+00   1.4863E+02  0.000E+00  0.000E+00  0.000E+00  1.03987E+03  2.288E+00  5.529E+01  5.593E-01  8.162E-01
   1   13    8     7     2    1.4863E+02  1.9610E+00   1.4667E+02  0.000E+00  0.000E+00  0.000E+00  1.03478E+03  2.279E+00  5.525E+01  6.147E-01  1.063E+00
   1   13    7     7     3    1.4667E+02  1.6847E+00   1.4498E+02  0.000E+00  0.000E+00  0.000E+00  1.02969E+03  2.269E+00  5.521E+01  5.584E-01  1.006E+00
   1   13    6     8     1    1.9548E+02  1.2353E+00   1.9425E+02  0.000E+00  0.000E+00  0.000E+00  1.02498E+03  3.107E+00  4.506E+01  4.591E-01  8.969E-01
   1   13    5     8     2    1.9425E+02  4.2634E-01   1.9382E+02  0.000E+00  0.000E+00  0.000E+00  1.01873E+03  3.102E+00  4.498E+01  4.584E-01  3.100E-01
   1   13    4     8     3    1.9382E+02 -1.7870E+00   1.9561E+02  0.000E+00  0.000E+00  0.000E+00  1.01248E+03  3.106E+00  4.504E+01  4.590E+00 -1.298E-01
   1   13    3     8     4    1.9561E+02 -3.4126E+00   1.9902E+02  0.000E+00  0.000E+00  0.000E+00  1.00625E+03  3.122E+00  4.527E+01  4.613E+00 -2.466E-01
   1   13    2     8     5    1.9902E+02 -2.6362E+00   2.0166E+02  0.000E+00  0.000E+00  0.000E+00  1.00001E+03  3.140E+00  4.553E+01  4.639E+00 -1.894E-01
   1   13    1     8     6    2.0166E+02 -2.0629E+00   2.0372E+02  0.000E+00  0.000E+00  0.000E+00  9.95029E+02  3.153E+00  4.573E+01  2.796E+00 -2.460E-01
   1    8    6     9     1    0.0000E+00  0.0000E+00   0.0000E+00  0.000E+00  0.000E+00  0.000E+00  1.07875E+03  0.000E+00  4.000E+00  0.000E+00  1.000E+00
   1    8    5     9     2    0.0000E+00  0.0000E+00   0.0000E+00  0.000E+00  0.000E+00  0.000E+00  1.07825E+03  0.000E+00  4.000E+00  0.000E+00  1.000E+00





UNSATURATED ZONE PACKAGE VOLUMETRIC BUDGET FOR  TIME STEP    30 STRESS PERIOD   41
  ------------------------------------------------------------------------------



     CUMULATIVE VOLUMES      L**3       RATES FOR THIS TIME STEP      L**3/T
     ------------------                 ------------------------

           IN:                                      IN:
           ---                                      ---
        INFILTRATION =  1293008019.9404          INFILTRATION =           0.8475

          OUT:                                     OUT:
          ----                                     ----
              UZF ET =  1292182454.9523                UZF ET =           0.8475
        UZF RECHARGE =       73224.0000          UZF RECHARGE =       0.0000E+00

            IN - OUT =      752340.9881              IN - OUT =       0.0000E+00

          STORAGE:                                 STORAGE:
          --------                                 --------
      STORAGE CHANGE =      752341.1376        STORAGE CHANGE =      -2.4899E-15

 PERCENT DISCREPANCY IS DIFFERENCE BETWEEN IN-OUT MINUS CHANGE IN STORAGE
 DIVIDED BY THE AVERAGE OF IN AND OUT TIMES 100

 PERCENT DISCREPANCY =           0.00     PERCENT DISCREPANCY =           0.00






1
  VOLUMETRIC BUDGET FOR AGRICULTURAL FIELDS AT  END OF TIME STEP   30, STRESS PERIOD  41
  ------------------------------------------------------------------------------

     CUMULATIVE VOLUMES      L**3       RATES FOR THIS TIME STEP      L**3/T
     ------------------                 ------------------------

           IN:                                      IN:
           ---                                      ---
               AG WELLS  =  1203775104.0000                 AG WELLS  =           0.0000
      DIVERSION SEGMENTS =           0.0000        DIVERSION SEGMENTS =           0.0000
       IRRIGATION PONDS  =           0.0000         IRRIGATION PONDS  =           0.0000
           GW IRRIGATION =           0.0000             GW IRRIGATION =           0.0000
           SW IRRIGATION =           0.0000             SW IRRIGATION =           0.0000
        SYSTEM LOSSES GW =           0.0000          SYSTEM LOSSES GW =           0.0000
        SYSTEM LOSSES SW =           0.0000          SYSTEM LOSSES SW =           0.0000

                TOTAL IN =  1203775104.0000                  TOTAL IN =           0.0000

          OUT:                                     OUT:
          ----                                     ----
               AG WELLS  =           0.0000                 AG WELLS  =           0.0000
      DIVERSION SEGMENTS =           0.0000        DIVERSION SEGMENTS =           0.0000
       IRRIGATION PONDS  =           0.0000         IRRIGATION PONDS  =           0.0000
           GW IRRIGATION =  1203775104.0000             GW IRRIGATION =           0.0000
           SW IRRIGATION =           0.0000             SW IRRIGATION =           0.0000
        SYSTEM LOSSES GW =           0.0000          SYSTEM LOSSES GW =           0.0000
        SYSTEM LOSSES SW =           0.0000          SYSTEM LOSSES SW =           0.0000

               TOTAL OUT =  1203775104.0000                 TOTAL OUT =           0.0000

                IN - OUT =           0.0000                  IN - OUT =           0.0000

     PERCENT DISCREPANCY =           0.00         PERCENT DISCREPANCY =           0.00



1
  VOLUMETRIC BUDGET FOR ENTIRE MODEL AT END OF TIME STEP   30, STRESS PERIOD  41
  ------------------------------------------------------------------------------

     CUMULATIVE VOLUMES      L**3       RATES FOR THIS TIME STEP      L**3/T
     ------------------                 ------------------------

           IN:                                      IN:
           ---                                      ---
             STORAGE     =  1696447232.0000               STORAGE     =           3.5057
       CONSTANT HEAD     =           0.0000         CONSTANT HEAD     =           0.0000
     HEAD DEP BOUNDS     =    30147434.0000       HEAD DEP BOUNDS     =           0.2880
      STREAM LEAKAGE     =  1302450304.0000        STREAM LEAKAGE     =          13.4265
        UZF RECHARGE     =       73223.9531          UZF RECHARGE     =           0.0000
               GW ET     =           0.0000                 GW ET     =           0.0000
     SURFACE LEAKAGE     =           0.0000       SURFACE LEAKAGE     =           0.0000
           AG WELLS      =           0.0000             AG WELLS      =           0.0000

                TOTAL IN =  3029118208.0000                  TOTAL IN =          17.2203

          OUT:                                     OUT:
          ----                                     ----
             STORAGE     =   717726976.0000               STORAGE     =           7.0275
       CONSTANT HEAD     =           0.0000         CONSTANT HEAD     =           0.0000
     HEAD DEP BOUNDS     =    30758208.0000       HEAD DEP BOUNDS     =           0.2951
      STREAM LEAKAGE     =  1068455296.0000        STREAM LEAKAGE     =           9.8987
        UZF RECHARGE     =           0.0000          UZF RECHARGE     =           0.0000
               GW ET     =     8413934.0000                 GW ET     =           0.0000
     SURFACE LEAKAGE     =           0.0000       SURFACE LEAKAGE     =           0.0000
           AG WELLS      =  1203775104.0000             AG WELLS      =           0.0000

               TOTAL OUT =  3029129728.0000                 TOTAL OUT =          17.2213

                IN - OUT =      -11520.0000                  IN - OUT =      -1.0033E-03

     PERCENT DISCREPANCY =          -0.00         PERCENT DISCREPANCY =          -0.01






         TIME SUMMARY AT END OF TIME STEP   30 IN STRESS PERIOD   41
                    SECONDS     MINUTES      HOURS       DAYS        YEARS
                    -----------------------------------------------------------
   TIME STEP LENGTH  87667.      1461.1      24.352      1.0147     2.77799E-03
 STRESS PERIOD TIME 2.63000E+06  43833.      730.56      30.440     8.33397E-02
         TOTAL TIME 1.05286E+08 1.75476E+06  29246.      1218.6      3.3363    
1
1
                            STRESS PERIOD NO.   42, LENGTH =   2630000.    
                            -----------------------------------------------

                              NUMBER OF TIME STEPS =    30

                               MULTIPLIER FOR DELT =     1.000

                            INITIAL TIME STEP SIZE =   87666.66    

 REUSING NON-PARAMETER GHB CELLS FROM LAST STRESS PERIOD

      2 GHB CELLS

 REUSING STREAM SEGMENT DATA FROM LAST STRESS PERIOD



            AREAL INFILTRATION RATE
 READING ON UNIT   19 WITH FORMAT: (FREE)              

            1           2           3           4           5           6           7           8           9          10
 ........................................................................................................................
   1   1.0000E-10  2.0000E-10   0.000       0.000       0.000       0.000       0.000       0.000       0.000       0.000    
   2   2.0000E-10  1.0000E-10  2.0000E-10   0.000       0.000      8.0000E-10  8.0000E-10  5.0000E-10   0.000       0.000    
   3    0.000      5.0000E-10  1.0000E-10  1.0000E-10  8.0000E-10  8.0000E-10  5.0000E-10  5.0000E-10   0.000       0.000    
   4   8.0000E-10  5.0000E-10  1.0000E-10  1.0000E-10  1.0000E-10  1.0000E-10  1.0000E-10  1.0000E-10  2.0000E-10   0.000    
   5   8.0000E-10  5.0000E-10  1.0000E-10  1.0000E-10  1.0000E-10  1.0000E-10  1.0000E-10  1.0000E-10  1.0000E-10  1.0000E-10
   6   8.0000E-10  5.0000E-10  5.0000E-10  2.0000E-10  2.0000E-10  1.0000E-10  1.0000E-10  1.0000E-10  1.0000E-10  5.0000E-10
   7   8.0000E-10  5.0000E-10  5.0000E-10  2.0000E-10  2.0000E-10  1.0000E-10  1.0000E-10  2.0000E-10  2.0000E-10   0.000    
   8    0.000      5.0000E-10  5.0000E-10  2.0000E-10  2.0000E-10  1.0000E-10  1.0000E-10  2.0000E-10  5.0000E-10   0.000    
   9    0.000      5.0000E-10  5.0000E-10  2.0000E-10  2.0000E-10  1.0000E-10  1.0000E-10  2.0000E-10  5.0000E-10   0.000    
  10    0.000      5.0000E-10  5.0000E-10  2.0000E-10  2.0000E-10  1.0000E-10  1.0000E-10  2.0000E-10  5.0000E-10  8.0000E-10
  11    0.000      1.0000E-10  1.0000E-10  1.0000E-10  1.0000E-10  1.0000E-10  1.0000E-10  2.0000E-10  5.0000E-10   0.000    
  12   1.0000E-10  1.0000E-10  1.0000E-10  1.0000E-10  1.0000E-10  1.0000E-10  1.0000E-10  1.0000E-10  2.0000E-10   0.000    
  13   1.0000E-10  1.0000E-10  2.0000E-10  2.0000E-10  2.0000E-10  2.0000E-10  2.0000E-10  1.0000E-10  1.0000E-10   0.000    
  14    0.000      2.0000E-10  5.0000E-10  5.0000E-10  5.0000E-10  5.0000E-10  5.0000E-10  2.0000E-10  1.0000E-10   0.000    
  15    0.000       0.000      8.0000E-10  8.0000E-10  8.0000E-10  8.0000E-10   0.000       0.000       0.000       0.000    

                  ET RATE =  5.000000E-08

 USING ET EXTINCTION DEPTH FROM PREVIOUS STRESS PERIOD. CURRENT PERIOD IS:      42

 USING EXTINCTION WATER CONTENT FROM PREVIOUS STRESS PERIOD. CURRENT PERIOD IS:      42

 USING AIR ENTRY PRESSURE FROM PREVIOUS STRESS PERIOD. CURRENT PERIOD IS:      42

 USING ROOT PRESSURE HEAD FROM PREVIOUS STRESS PERIOD. CURRENT PERIOD IS:      42

 USING ROOT ACTIVITY FROM PREVIOUS STRESS PERIOD. CURRENT PERIOD IS:      42

 PROCESSING AG STRESS PERIOD DATA

 READING AG STRESS PERIOD DATA

 READING IRRIGATION SEGMENT

 READING IRRIGATION WELL

 READING SUPPLEMENTAL WELL

 NO IRRPOND OR REUSING IRRPOND DATA FROM LAST STRESS PERIOD

 END PROCESSING AG STRESS PERIOD DATA OPTIONS
 
 SOLVING FOR HEAD 
                                                   Max.-Head-Change                         Max.-Flux-Residual
  Residual-Control   Outer-Iter.   Inner-Iter.     Column Row Layer    Maximum-Head-Change  Column Row Layer    Maximum-Flux-Residual          L2-NORM 
          0                 1           2             5    6     1      -0.1608606638E-01       5    6    1        -0.8688082354E+00      0.2273099150E+01
          0                 2           2             5    6     1       0.1564627786E-02       5    6    1         0.8688106537E-01      0.2269791234E+00
          0                 3           2             5    6     1      -0.1065453182E-03       5    6    1        -0.6081674939E-02      0.1587722655E-01
          0                 4           1             5    6     1       0.4239529444E-05       5    6    1         0.2487408603E-03      0.6486936818E-03

    ------------------------------------------------
       NWT REQUIRED            4 OUTER ITERATIONS 
       AND A TOTAL OF          7 INNER ITERATIONS.
    ------------------------------------------------

 NO OUTPUT CONTROL FOR STRESS PERIOD   42   TIME STEP    1
 
 SOLVING FOR HEAD 
                                                   Max.-Head-Change                         Max.-Flux-Residual
  Residual-Control   Outer-Iter.   Inner-Iter.     Column Row Layer    Maximum-Head-Change  Column Row Layer    Maximum-Flux-Residual          L2-NORM 
          0                 1           2             5    6     1      -0.1549091041E-01       5    6    1        -0.8360210518E+00      0.2207047153E+01
          0                 2           2             5    6     1       0.1506846368E-02       5    6    1         0.8360232841E-01      0.2205947548E+00
          0                 3           1             5    6     1      -0.1026104050E-03       5    6    1        -0.5852163402E-02      0.1543165364E-01
          0                 4           1             5    6     1       0.4082746260E-05       5    6    1         0.2393406887E-03      0.6304886866E-03

    ------------------------------------------------
       NWT REQUIRED            4 OUTER ITERATIONS 
       AND A TOTAL OF          6 INNER ITERATIONS.
    ------------------------------------------------

 NO OUTPUT CONTROL FOR STRESS PERIOD   42   TIME STEP    2
 
 SOLVING FOR HEAD 
                                                   Max.-Head-Change                         Max.-Flux-Residual
  Residual-Control   Outer-Iter.   Inner-Iter.     Column Row Layer    Maximum-Head-Change  Column Row Layer    Maximum-Flux-Residual          L2-NORM 
          0                 1           2             5    6     1      -0.1492895653E-01       5    6    1        -0.8050909126E+00      0.2144658102E+01
          0                 2           2             5    6     1       0.1452183329E-02       5    6    1         0.8050929722E-01      0.2143720225E+00
          0                 3           1             5    6     1      -0.9888806183E-04       5    6    1        -0.5635651293E-02      0.1499728284E-01

    ------------------------------------------------
       NWT REQUIRED            3 OUTER ITERATIONS 
       AND A TOTAL OF          5 INNER ITERATIONS.
    ------------------------------------------------

 NO OUTPUT CONTROL FOR STRESS PERIOD   42   TIME STEP    3
 
 SOLVING FOR HEAD 
                                                   Max.-Head-Change                         Max.-Flux-Residual
  Residual-Control   Outer-Iter.   Inner-Iter.     Column Row Layer    Maximum-Head-Change  Column Row Layer    Maximum-Flux-Residual          L2-NORM 
          0                 1           2             5    7     1      -0.1450552760E-01       5    6    1        -0.7758792190E+00      0.2085527406E+01
          0                 2           2             5    7     1       0.1410993175E-02       5    6    1         0.7758811199E-01      0.2084678093E+00
          0                 3           1             5    7     1      -0.9608342806E-04       5    6    1        -0.5431168380E-02      0.1458494747E-01

    ------------------------------------------------
       NWT REQUIRED            3 OUTER ITERATIONS 
       AND A TOTAL OF          5 INNER ITERATIONS.
    ------------------------------------------------

 NO OUTPUT CONTROL FOR STRESS PERIOD   42   TIME STEP    4
 
 SOLVING FOR HEAD 
                                                   Max.-Head-Change                         Max.-Flux-Residual
  Residual-Control   Outer-Iter.   Inner-Iter.     Column Row Layer    Maximum-Head-Change  Column Row Layer    Maximum-Flux-Residual          L2-NORM 
          0                 1           2             5    7     1      -0.1421943971E-01       5    7    1        -0.7538681892E+00      0.2029420104E+01
          0                 2           2             5    7     1       0.1383164339E-02       5    7    1         0.7538687142E-01      0.2028671759E+00
          0                 3           1             5    7     1      -0.9418839085E-04       5    7    1        -0.5277082786E-02      0.1419377825E-01

    ------------------------------------------------
       NWT REQUIRED            3 OUTER ITERATIONS 
       AND A TOTAL OF          5 INNER ITERATIONS.
    ------------------------------------------------

 NO OUTPUT CONTROL FOR STRESS PERIOD   42   TIME STEP    5
 
 SOLVING FOR HEAD 
                                                   Max.-Head-Change                         Max.-Flux-Residual
  Residual-Control   Outer-Iter.   Inner-Iter.     Column Row Layer    Maximum-Head-Change  Column Row Layer    Maximum-Flux-Residual          L2-NORM 
          0                 1           2             5    7     1      -0.1393803662E-01       5    7    1        -0.7390019669E+00      0.1976123701E+01
          0                 2           2             5    7     1       0.1355791244E-02       5    7    1         0.7390023146E-01      0.1975469366E+00
          0                 3           1             5    7     1      -0.9232438766E-04       5    7    1        -0.5173018102E-02      0.1382236509E-01

    ------------------------------------------------
       NWT REQUIRED            3 OUTER ITERATIONS 
       AND A TOTAL OF          5 INNER ITERATIONS.
    ------------------------------------------------

 NO OUTPUT CONTROL FOR STRESS PERIOD   42   TIME STEP    6
 
 SOLVING FOR HEAD 
                                                   Max.-Head-Change                         Max.-Flux-Residual
  Residual-Control   Outer-Iter.   Inner-Iter.     Column Row Layer    Maximum-Head-Change  Column Row Layer    Maximum-Flux-Residual          L2-NORM 
          0                 1           2             4    7     1      -0.1380406654E-01       5    7    1        -0.7243704518E+00      0.1925424390E+01
          0                 2           2             4    7     1       0.1342755064E-02       5    7    1         0.7243706453E-01      0.1924848236E+00
          0                 3           1             4    7     1      -0.9143668172E-04       5    7    1        -0.5070596510E-02      0.1346871644E-01

    ------------------------------------------------
       NWT REQUIRED            3 OUTER ITERATIONS 
       AND A TOTAL OF          5 INNER ITERATIONS.
    ------------------------------------------------

 NO OUTPUT CONTROL FOR STRESS PERIOD   42   TIME STEP    7
 
 SOLVING FOR HEAD 
                                                   Max.-Head-Change                         Max.-Flux-Residual
  Residual-Control   Outer-Iter.   Inner-Iter.     Column Row Layer    Maximum-Head-Change  Column Row Layer    Maximum-Flux-Residual          L2-NORM 
          0                 1           2             4    7     1      -0.1367652490E-01       4    7    1        -0.7172379274E+00      0.1877148159E+01
          0                 2           2             4    7     1       0.1330348649E-02       4    7    1         0.7172350536E-01      0.1876641593E+00
          0                 3           1             4    7     1      -0.9059185175E-04       4    7    1        -0.5020650274E-02      0.1313197060E-01

    ------------------------------------------------
       NWT REQUIRED            3 OUTER ITERATIONS 
       AND A TOTAL OF          5 INNER ITERATIONS.
    ------------------------------------------------

 NO OUTPUT CONTROL FOR STRESS PERIOD   42   TIME STEP    8
 
 SOLVING FOR HEAD 
                                                   Max.-Head-Change                         Max.-Flux-Residual
  Residual-Control   Outer-Iter.   Inner-Iter.     Column Row Layer    Maximum-Head-Change  Column Row Layer    Maximum-Flux-Residual          L2-NORM 
          0                 1           2             4    7     1      -0.1354388710E-01       4    7    1        -0.7106102148E+00      0.1831118387E+01
          0                 2           2             4    7     1       0.1317446539E-02       4    7    1         0.7106072927E-01      0.1830672682E+00
          0                 3           1             4    7     1      -0.8971326636E-04       4    7    1        -0.4974255964E-02      0.1281070301E-01

    ------------------------------------------------
       NWT REQUIRED            3 OUTER ITERATIONS 
       AND A TOTAL OF          5 INNER ITERATIONS.
    ------------------------------------------------

 NO OUTPUT CONTROL FOR STRESS PERIOD   42   TIME STEP    9
 
 SOLVING FOR HEAD 
                                                   Max.-Head-Change                         Max.-Flux-Residual
  Residual-Control   Outer-Iter.   Inner-Iter.     Column Row Layer    Maximum-Head-Change  Column Row Layer    Maximum-Flux-Residual          L2-NORM 
          0                 1           2             4    7     1      -0.1340660325E-01       4    7    1        -0.7037109552E+00      0.1787184747E+01
          0                 2           2             4    7     1       0.1304092516E-02       4    7    1         0.7037079987E-01      0.1786790619E+00
          0                 3           1             4    7     1      -0.8880390754E-04       4    7    1        -0.4925960921E-02      0.1250394359E-01

    ------------------------------------------------
       NWT REQUIRED            3 OUTER ITERATIONS 
       AND A TOTAL OF          5 INNER ITERATIONS.
    ------------------------------------------------

 NO OUTPUT CONTROL FOR STRESS PERIOD   42   TIME STEP   10
 
 SOLVING FOR HEAD 
                                                   Max.-Head-Change                         Max.-Flux-Residual
  Residual-Control   Outer-Iter.   Inner-Iter.     Column Row Layer    Maximum-Head-Change  Column Row Layer    Maximum-Flux-Residual          L2-NORM 
          0                 1           2             4    7     1      -0.1326549043E-01       4    7    1        -0.6965854579E+00      0.1745205982E+01
          0                 2           2             4    7     1       0.1290366056E-02       4    7    1         0.6965824795E-01      0.1744858299E+00
          0                 3           1             4    7     1      -0.8786918657E-04       4    7    1        -0.4876082266E-02      0.1221082502E-01

    ------------------------------------------------
       NWT REQUIRED            3 OUTER ITERATIONS 
       AND A TOTAL OF          5 INNER ITERATIONS.
    ------------------------------------------------

 NO OUTPUT CONTROL FOR STRESS PERIOD   42   TIME STEP   11
 
 SOLVING FOR HEAD 
                                                   Max.-Head-Change                         Max.-Flux-Residual
  Residual-Control   Outer-Iter.   Inner-Iter.     Column Row Layer    Maximum-Head-Change  Column Row Layer    Maximum-Flux-Residual          L2-NORM 
          0                 1           2             4    7     1      -0.1312092038E-01       4    7    1        -0.6892541154E+00      0.1705054103E+01
          0                 2           2             4    7     1       0.1276303318E-02       4    7    1         0.6892511264E-01      0.1704746722E+00
          0                 3           1             4    7     1      -0.8691156663E-04       4    7    1        -0.4824762788E-02      0.1193041980E-01

    ------------------------------------------------
       NWT REQUIRED            3 OUTER ITERATIONS 
       AND A TOTAL OF          5 INNER ITERATIONS.
    ------------------------------------------------

 NO OUTPUT CONTROL FOR STRESS PERIOD   42   TIME STEP   12
 
 SOLVING FOR HEAD 
                                                   Max.-Head-Change                         Max.-Flux-Residual
  Residual-Control   Outer-Iter.   Inner-Iter.     Column Row Layer    Maximum-Head-Change  Column Row Layer    Maximum-Flux-Residual          L2-NORM 
          0                 1           2             4    7     1      -0.1297323023E-01       4    7    1        -0.6817362024E+00      0.1666613495E+01
          0                 2           2             4    7     1       0.1257216664E-02       4    7    1         0.6785049272E-01      0.1664740929E+00
          0                 3           1             4    7     1      -0.8561180436E-04       4    7    1        -0.4749537204E-02      0.1165073845E-01

    ------------------------------------------------
       NWT REQUIRED            3 OUTER ITERATIONS 
       AND A TOTAL OF          5 INNER ITERATIONS.
    ------------------------------------------------

 NO OUTPUT CONTROL FOR STRESS PERIOD   42   TIME STEP   13
 
 SOLVING FOR HEAD 
                                                   Max.-Head-Change                         Max.-Flux-Residual
  Residual-Control   Outer-Iter.   Inner-Iter.     Column Row Layer    Maximum-Head-Change  Column Row Layer    Maximum-Flux-Residual          L2-NORM 
          0                 1           2             4    7     1      -0.1283769373E-01       4    7    1        -0.6743229843E+00      0.1629905449E+01
          0                 2           2             4    7     1       0.1248756253E-02       4    7    1         0.6743221825E-01      0.1629666787E+00
          0                 3           1             4    7     1      -0.8503568351E-04       4    7    1        -0.4720258083E-02      0.1140553718E-01

    ------------------------------------------------
       NWT REQUIRED            3 OUTER ITERATIONS 
       AND A TOTAL OF          5 INNER ITERATIONS.
    ------------------------------------------------

 NO OUTPUT CONTROL FOR STRESS PERIOD   42   TIME STEP   14
 
 SOLVING FOR HEAD 
                                                   Max.-Head-Change                         Max.-Flux-Residual
  Residual-Control   Outer-Iter.   Inner-Iter.     Column Row Layer    Maximum-Head-Change  Column Row Layer    Maximum-Flux-Residual          L2-NORM 
          0                 1           2             4    7     1      -0.1269428422E-01       4    7    1        -0.6670216292E+00      0.1594842934E+01
          0                 2           2             4    7     1       0.1234806317E-02       4    7    1         0.6670207560E-01      0.1594631486E+00
          0                 3           1             4    7     1      -0.8408574540E-04       4    7    1        -0.4669148141E-02      0.1116055866E-01

    ------------------------------------------------
       NWT REQUIRED            3 OUTER ITERATIONS 
       AND A TOTAL OF          5 INNER ITERATIONS.
    ------------------------------------------------

 NO OUTPUT CONTROL FOR STRESS PERIOD   42   TIME STEP   15
 
 SOLVING FOR HEAD 
                                                   Max.-Head-Change                         Max.-Flux-Residual
  Residual-Control   Outer-Iter.   Inner-Iter.     Column Row Layer    Maximum-Head-Change  Column Row Layer    Maximum-Flux-Residual          L2-NORM 
          0                 1           2             4    7     1      -0.1254842660E-01       4    7    1        -0.6595712301E+00      0.1561186462E+01
          0                 2           2             4    7     1       0.1220618262E-02       4    7    1         0.6595702952E-01      0.1560999731E+00
          0                 3           1             4    7     1      -0.8311959256E-04       4    7    1        -0.4616994954E-02      0.1092535449E-01

    ------------------------------------------------
       NWT REQUIRED            3 OUTER ITERATIONS 
       AND A TOTAL OF          5 INNER ITERATIONS.
    ------------------------------------------------

 NO OUTPUT CONTROL FOR STRESS PERIOD   42   TIME STEP   16
 
 SOLVING FOR HEAD 
                                                   Max.-Head-Change                         Max.-Flux-Residual
  Residual-Control   Outer-Iter.   Inner-Iter.     Column Row Layer    Maximum-Head-Change  Column Row Layer    Maximum-Flux-Residual          L2-NORM 
          0                 1           2             4    7     1      -0.1240051976E-01       4    7    1        -0.6519939055E+00      0.1528849564E+01
          0                 2           2             4    7     1       0.1206230885E-02       4    7    1         0.6519929181E-01      0.1528683322E+00
          0                 3           1             4    7     1      -0.8213986568E-04       4    7    1        -0.4563953320E-02      0.1069926719E-01

    ------------------------------------------------
       NWT REQUIRED            3 OUTER ITERATIONS 
       AND A TOTAL OF          5 INNER ITERATIONS.
    ------------------------------------------------

 NO OUTPUT CONTROL FOR STRESS PERIOD   42   TIME STEP   17
 
 SOLVING FOR HEAD 
                                                   Max.-Head-Change                         Max.-Flux-Residual
  Residual-Control   Outer-Iter.   Inner-Iter.     Column Row Layer    Maximum-Head-Change  Column Row Layer    Maximum-Flux-Residual          L2-NORM 
          0                 1           2             4    7     1      -0.1225093269E-01       4    7    1        -0.6443103360E+00      0.1497763745E+01
          0                 2           2             4    7     1       0.1191680081E-02       4    7    1         0.6443093039E-01      0.1497616542E+00
          0                 3           1             4    7     1      -0.8114901078E-04       4    7    1        -0.4510168061E-02      0.1048201733E-01

    ------------------------------------------------
       NWT REQUIRED            3 OUTER ITERATIONS 
       AND A TOTAL OF          5 INNER ITERATIONS.
    ------------------------------------------------

 NO OUTPUT CONTROL FOR STRESS PERIOD   42   TIME STEP   18
 
 SOLVING FOR HEAD 
                                                   Max.-Head-Change                         Max.-Flux-Residual
  Residual-Control   Outer-Iter.   Inner-Iter.     Column Row Layer    Maximum-Head-Change  Column Row Layer    Maximum-Flux-Residual          L2-NORM 
          0                 1           2             4    7     1      -0.1209987140E-01       4    7    1        -0.6365323327E+00      0.1467843767E+01
          0                 2           2             4    7     1       0.1176985885E-02       4    7    1         0.6365312634E-01      0.1467712866E+00
          0                 3           1             4    7     1      -0.8014839110E-04       4    7    1        -0.4455721801E-02      0.1027282800E-01

    ------------------------------------------------
       NWT REQUIRED            3 OUTER ITERATIONS 
       AND A TOTAL OF          5 INNER ITERATIONS.
    ------------------------------------------------

 NO OUTPUT CONTROL FOR STRESS PERIOD   42   TIME STEP   19
 
 SOLVING FOR HEAD 
                                                   Max.-Head-Change                         Max.-Flux-Residual
  Residual-Control   Outer-Iter.   Inner-Iter.     Column Row Layer    Maximum-Head-Change  Column Row Layer    Maximum-Flux-Residual          L2-NORM 
          0                 1           2             4    7     1      -0.1194792692E-01       4    7    1        -0.6286925413E+00      0.1439035377E+01
          0                 2           2             4    7     1       0.1162205788E-02       4    7    1         0.6286914415E-01      0.1438918935E+00
          0                 3           1             4    7     1      -0.7914192168E-04       4    7    1        -0.4400843028E-02      0.1007143742E-01

    ------------------------------------------------
       NWT REQUIRED            3 OUTER ITERATIONS 
       AND A TOTAL OF          5 INNER ITERATIONS.
    ------------------------------------------------

 NO OUTPUT CONTROL FOR STRESS PERIOD   42   TIME STEP   20
 
 SOLVING FOR HEAD 
                                                   Max.-Head-Change                         Max.-Flux-Residual
  Residual-Control   Outer-Iter.   Inner-Iter.     Column Row Layer    Maximum-Head-Change  Column Row Layer    Maximum-Flux-Residual          L2-NORM 
          0                 1           2             4    7     1      -0.1179511307E-01       4    7    1        -0.6207923189E+00      0.1411271597E+01
          0                 2           2             4    7     1       0.1147341135E-02       4    7    1         0.6207911943E-01      0.1411168282E+00
          0                 3           1             4    7     1      -0.7812969448E-04       4    7    1        -0.4345541312E-02      0.9877335175E-02

    ------------------------------------------------
       NWT REQUIRED            3 OUTER ITERATIONS 
       AND A TOTAL OF          5 INNER ITERATIONS.
    ------------------------------------------------

 NO OUTPUT CONTROL FOR STRESS PERIOD   42   TIME STEP   21
 
 SOLVING FOR HEAD 
                                                   Max.-Head-Change                         Max.-Flux-Residual
  Residual-Control   Outer-Iter.   Inner-Iter.     Column Row Layer    Maximum-Head-Change  Column Row Layer    Maximum-Flux-Residual          L2-NORM 
          0                 1           2             4    7     1      -0.1164170393E-01       4    7    1        -0.6128470262E+00      0.1384496879E+01
          0                 2           2             4    7     1       0.1132418584E-02       4    7    1         0.6128458827E-01      0.1384404483E+00
          0                 3           1             4    7     1      -0.7711352429E-04       4    7    1        -0.4289924129E-02      0.9690032802E-02

    ------------------------------------------------
       NWT REQUIRED            3 OUTER ITERATIONS 
       AND A TOTAL OF          5 INNER ITERATIONS.
    ------------------------------------------------

 NO OUTPUT CONTROL FOR STRESS PERIOD   42   TIME STEP   22
 
 SOLVING FOR HEAD 
                                                   Max.-Head-Change                         Max.-Flux-Residual
  Residual-Control   Outer-Iter.   Inner-Iter.     Column Row Layer    Maximum-Head-Change  Column Row Layer    Maximum-Flux-Residual          L2-NORM 
          0                 1           2             4    7     1      -0.1148822439E-01       4    7    1        -0.6048855152E+00      0.1358671903E+01
          0                 2           2             4    7     1       0.1117489192E-02       4    7    1         0.6048843575E-01      0.1358589682E+00
          0                 3           1             4    7     1      -0.7609688775E-04       4    7    1        -0.4234193414E-02      0.9509448960E-02

    ------------------------------------------------
       NWT REQUIRED            3 OUTER ITERATIONS 
       AND A TOTAL OF          5 INNER ITERATIONS.
    ------------------------------------------------

 NO OUTPUT CONTROL FOR STRESS PERIOD   42   TIME STEP   23
 
 SOLVING FOR HEAD 
                                                   Max.-Head-Change                         Max.-Flux-Residual
  Residual-Control   Outer-Iter.   Inner-Iter.     Column Row Layer    Maximum-Head-Change  Column Row Layer    Maximum-Flux-Residual          L2-NORM 
          0                 1           2             4    7     1      -0.1133462241E-01       4    7    1        -0.5969057162E+00      0.1333728359E+01
          0                 2           2             4    7     1       0.1102547896E-02       4    7    1         0.5969045487E-01      0.1333654717E+00
          0                 3           1             4    7     1      -0.7507944142E-04       4    7    1        -0.4178334745E-02      0.9334939694E-02

    ------------------------------------------------
       NWT REQUIRED            3 OUTER ITERATIONS 
       AND A TOTAL OF          5 INNER ITERATIONS.
    ------------------------------------------------

 NO OUTPUT CONTROL FOR STRESS PERIOD   42   TIME STEP   24
 
 SOLVING FOR HEAD 
                                                   Max.-Head-Change                         Max.-Flux-Residual
  Residual-Control   Outer-Iter.   Inner-Iter.     Column Row Layer    Maximum-Head-Change  Column Row Layer    Maximum-Flux-Residual          L2-NORM 
          0                 1           2             4    7     1      -0.1118125046E-01       4    7    1        -0.5889268943E+00      0.1309636463E+01
          0                 2           2             4    7     1       0.1087628981E-02       4    7    1         0.5889257209E-01      0.1309570338E+00
          0                 3           1             4    7     1      -0.7406351880E-04       4    7    1        -0.4122482942E-02      0.9166430437E-02

    ------------------------------------------------
       NWT REQUIRED            3 OUTER ITERATIONS 
       AND A TOTAL OF          5 INNER ITERATIONS.
    ------------------------------------------------

 NO OUTPUT CONTROL FOR STRESS PERIOD   42   TIME STEP   25
 
 SOLVING FOR HEAD 
                                                   Max.-Head-Change                         Max.-Flux-Residual
  Residual-Control   Outer-Iter.   Inner-Iter.     Column Row Layer    Maximum-Head-Change  Column Row Layer    Maximum-Flux-Residual          L2-NORM 
          0                 1           2             4    7     1      -0.1102816125E-01       4    7    1        -0.5809526820E+00      0.1286346874E+01
          0                 2           2             4    7     1       0.1072737574E-02       4    7    1         0.5809515061E-01      0.1286287233E+00
          0                 3           1             4    7     1      -0.7304946897E-04       4    7    1        -0.4066663410E-02      0.9003468114E-02

    ------------------------------------------------
       NWT REQUIRED            3 OUTER ITERATIONS 
       AND A TOTAL OF          5 INNER ITERATIONS.
    ------------------------------------------------

 NO OUTPUT CONTROL FOR STRESS PERIOD   42   TIME STEP   26
 
 SOLVING FOR HEAD 
                                                   Max.-Head-Change                         Max.-Flux-Residual
  Residual-Control   Outer-Iter.   Inner-Iter.     Column Row Layer    Maximum-Head-Change  Column Row Layer    Maximum-Flux-Residual          L2-NORM 
          0                 1           2             4    7     1      -0.1087580351E-01       4    7    1        -0.5730077751E+00      0.1263827909E+01
          0                 2           2             4    7     1       0.1057892712E-02       4    7    1         0.5730065999E-01      0.1263193027E+00
          0                 3           1             4    7     1      -0.7203858879E-04       4    7    1        -0.4011049043E-02      0.8841884105E-02

    ------------------------------------------------
       NWT REQUIRED            3 OUTER ITERATIONS 
       AND A TOTAL OF          5 INNER ITERATIONS.
    ------------------------------------------------

 NO OUTPUT CONTROL FOR STRESS PERIOD   42   TIME STEP   27
 
 SOLVING FOR HEAD 
                                                   Max.-Head-Change                         Max.-Flux-Residual
  Residual-Control   Outer-Iter.   Inner-Iter.     Column Row Layer    Maximum-Head-Change  Column Row Layer    Maximum-Flux-Residual          L2-NORM 
          0                 1           2             4    7     1      -0.1072419383E-01       4    7    1        -0.5650874649E+00      0.1242072303E+01
          0                 2           2             4    7     1       0.1043169865E-02       4    7    1         0.5650862952E-01      0.1242024660E+00
          0                 3           1             4    7     1      -0.7103601738E-04       4    7    1        -0.3955606875E-02      0.8693776299E-02

    ------------------------------------------------
       NWT REQUIRED            3 OUTER ITERATIONS 
       AND A TOTAL OF          5 INNER ITERATIONS.
    ------------------------------------------------

 NO OUTPUT CONTROL FOR STRESS PERIOD   42   TIME STEP   28
 
 SOLVING FOR HEAD 
                                                   Max.-Head-Change                         Max.-Flux-Residual
  Residual-Control   Outer-Iter.   Inner-Iter.     Column Row Layer    Maximum-Head-Change  Column Row Layer    Maximum-Flux-Residual          L2-NORM 
          0                 1           2             4    7     1      -0.1057339824E-01       4    7    1        -0.5572033290E+00      0.1221122357E+01
          0                 2           2             4    7     1       0.1028501578E-02       4    7    1         0.5572021666E-01      0.1221079444E+00
          0                 3           1             4    7     1      -0.7003716151E-04       4    7    1        -0.3900417954E-02      0.8547219257E-02

    ------------------------------------------------
       NWT REQUIRED            3 OUTER ITERATIONS 
       AND A TOTAL OF          5 INNER ITERATIONS.
    ------------------------------------------------

 NO OUTPUT CONTROL FOR STRESS PERIOD   42   TIME STEP   29
 
 SOLVING FOR HEAD 
                                                   Max.-Head-Change                         Max.-Flux-Residual
  Residual-Control   Outer-Iter.   Inner-Iter.     Column Row Layer    Maximum-Head-Change  Column Row Layer    Maximum-Flux-Residual          L2-NORM 
          0                 1           2             4    7     1      -0.1042383429E-01       4    7    1        -0.5493773547E+00      0.1200829254E+01
          0                 2           2             4    7     1       0.1013953099E-02       4    7    1         0.5493762015E-01      0.1200790341E+00
          0                 3           1             4    7     1      -0.6904646352E-04       4    7    1        -0.3845636163E-02      0.8405160541E-02

    ------------------------------------------------
       NWT REQUIRED            3 OUTER ITERATIONS 
       AND A TOTAL OF          5 INNER ITERATIONS.
    ------------------------------------------------

 NO OUTPUT CONTROL FOR STRESS PERIOD   42   TIME STEP   30



 STREAM LISTING     PERIOD     42   STEP       30

 LAYER ROW COL. STREAM  RCH.  FLOW INTO     FLOW TO   FLOW OUT OF   OVRLND.     DIRECT     STREAM       STREAM     STREAM     STREAM   STREAMBED  STREAMBED
                SEG.NO.  NO.  STRM. RCH.    AQUIFER    STRM. RCH.    RUNOFF     PRECIP       ET          HEAD       DEPTH      WIDTH   CONDCTNC.   GRADIENT

   1    1    1     1     1    4.7249E+01  3.2762E-01   4.6921E+01  0.000E+00  0.000E+00  0.000E+00  1.09443E+03  1.381E+00  1.662E+01  7.477E-02  1.460E+00
   1    2    2     1     2    4.6921E+01  5.0759E-01   4.6413E+01  0.000E+00  0.000E+00  0.000E+00  1.08944E+03  1.379E+00  1.656E+01  1.159E-01  1.460E+00
   1    3    3     1     3    4.6413E+01  4.3309E-01   4.5980E+01  0.000E+00  0.000E+00  0.000E+00  1.08379E+03  1.376E+00  1.650E+01  9.898E-02  1.459E+00
   1    3    4     1     4    4.5980E+01  3.9899E-01   4.5581E+01  0.000E+00  0.000E+00  0.000E+00  1.07878E+03  1.373E+00  1.644E+01  9.124E-02  1.458E+00
   1    4    5     2     1    4.3581E+01  3.6514E-01   4.3216E+01  0.000E+00  0.000E+00  0.000E+00  1.07362E+03  1.681E+00  1.200E+01  7.800E-02  1.560E+00
   1    5    6     2     2    4.3216E+01  2.8042E-01   4.2936E+01  0.000E+00  0.000E+00  0.000E+00  1.06818E+03  1.674E+00  1.200E+01  6.000E-02  1.558E+00
   1    6    6     2     3    4.2936E+01  2.8003E-01   4.2656E+01  0.000E+00  0.000E+00  0.000E+00  1.06346E+03  1.667E+00  1.200E+01  6.000E-02  1.556E+00
   1    7    6     2     4    4.2656E+01  2.7964E-01   4.2376E+01  0.000E+00  0.000E+00  0.000E+00  1.05874E+03  1.661E+00  1.200E+01  6.000E-02  1.554E+00
   1    8    6     2     5    4.2376E+01  2.7924E-01   4.2097E+01  0.000E+00  0.000E+00  0.000E+00  1.05401E+03  1.654E+00  1.200E+01  6.000E-02  1.551E+00
   1    3    5     3     1    2.0000E+00  2.8252E-01   1.7175E+00  0.000E+00  0.000E+00  0.000E+00  1.07555E+03  1.909E+00  9.636E+00  7.227E-02  1.955E+00
   1    3    6     3     2    1.7175E+00  2.4905E-01   1.4684E+00  0.000E+00  0.000E+00  0.000E+00  1.07264E+03  1.727E+00  8.909E+00  6.682E-02  1.864E+00
   1    3    7     3     3    1.4684E+00  1.9718E-01   1.2712E+00  0.000E+00  0.000E+00  0.000E+00  1.06987E+03  1.555E+00  8.218E+00  5.547E-02  1.777E+00
   1    4    8     3     4    1.2712E+00  2.2567E-01   1.0456E+00  0.000E+00  0.000E+00  0.000E+00  1.06682E+03  1.364E+00  7.455E+00  6.709E-02  1.682E+00
   1    5    8     3     5    1.0456E+00  1.5790E-01   8.8768E-01  0.000E+00  0.000E+00  0.000E+00  1.06362E+03  1.164E+00  6.655E+00  4.991E-02  1.582E+00
   1    6    8     3     6    8.8768E-01  5.5980E-02   8.3170E-01  0.000E+00  0.000E+00  0.000E+00  1.06158E+03  1.036E+00  6.145E+00  1.844E-02  1.518E+00
   1    5   10     4     1    1.0000E+01  9.0919E-02   9.9091E+00  0.000E+00  0.000E+00  0.000E+00  1.07836E+03  6.368E-01  1.000E+01  2.500E-02  1.212E+00
   1    5    9     4     2    9.9091E+00  1.8158E-01   9.7275E+00  0.000E+00  0.000E+00  0.000E+00  1.07154E+03  6.315E-01  1.000E+01  5.000E-02  1.211E+00
   1    6    8     4     3    9.7275E+00  1.2689E-01   9.6006E+00  0.000E+00  0.000E+00  0.000E+00  1.06381E+03  6.256E-01  1.000E+01  3.500E-02  1.209E+00
   1    6    8     5     1    1.0432E+01  2.2686E-01   1.0205E+01  0.000E+00  0.000E+00  0.000E+00  1.05868E+03  6.790E-01  1.542E+01  6.166E-02  1.226E+00
   1    7    7     5     2    1.0205E+01  2.7894E-01   9.9265E+00  0.000E+00  0.000E+00  0.000E+00  1.05417E+03  6.732E-01  1.519E+01  7.594E-02  1.224E+00
   1    8    7     5     3    9.9265E+00  1.9221E-01   9.7343E+00  0.000E+00  0.000E+00  0.000E+00  1.04992E+03  6.676E-01  1.497E+01  5.241E-02  1.223E+00
   1    8    6     5     4    9.7343E+00  1.3577E-01   9.5985E+00  0.000E+00  0.000E+00  0.000E+00  1.04691E+03  6.637E-01  1.482E+01  3.706E-02  1.221E+00
   1    9    6     6     1    5.1695E+01  2.9310E-01   5.1402E+01  0.000E+00  0.000E+00  0.000E+00  1.04461E+03  1.885E+00  1.200E+01  6.000E-02  1.628E+00
   1   10    7     6     2    5.1402E+01  2.9271E-01   5.1110E+01  0.000E+00  0.000E+00  0.000E+00  1.04006E+03  1.879E+00  1.200E+01  6.000E-02  1.626E+00
   1   11    7     6     3    5.1110E+01  2.9233E-01   5.0817E+01  0.000E+00  0.000E+00  0.000E+00  1.03551E+03  1.872E+00  1.200E+01  6.000E-02  1.624E+00
   1   12    7     6     4    5.0817E+01  2.9194E-01   5.0525E+01  0.000E+00  0.000E+00  0.000E+00  1.03096E+03  1.866E+00  1.200E+01  6.000E-02  1.622E+00
   1   13    7     6     5    5.0525E+01  2.6618E-02   5.0499E+01  0.000E+00  0.000E+00  0.000E+00  1.02777E+03  1.862E+00  1.200E+01  2.400E-02  3.697E-01
   1   14    9     7     1    1.5000E+02  1.3713E+00   1.4863E+02  0.000E+00  0.000E+00  0.000E+00  1.03987E+03  2.288E+00  5.529E+01  5.593E-01  8.173E-01
   1   13    8     7     2    1.4863E+02  1.9650E+00   1.4666E+02  0.000E+00  0.000E+00  0.000E+00  1.03478E+03  2.279E+00  5.525E+01  6.147E-01  1.065E+00
   1   13    7     7     3    1.4666E+02  1.6898E+00   1.4497E+02  0.000E+00  0.000E+00  0.000E+00  1.02969E+03  2.269E+00  5.521E+01  5.584E-01  1.009E+00
   1   13    6     8     1    1.9547E+02  1.2429E+00   1.9423E+02  0.000E+00  0.000E+00  0.000E+00  1.02498E+03  3.107E+00  4.505E+01  4.591E-01  9.024E-01
   1   13    5     8     2    1.9423E+02  4.3337E-01   1.9380E+02  0.000E+00  0.000E+00  0.000E+00  1.01873E+03  3.102E+00  4.498E+01  4.584E-01  3.151E-01
   1   13    4     8     3    1.9380E+02 -1.6619E+00   1.9546E+02  0.000E+00  0.000E+00  0.000E+00  1.01248E+03  3.106E+00  4.503E+01  4.589E+00 -1.207E-01
   1   13    3     8     4    1.9546E+02 -3.2856E+00   1.9874E+02  0.000E+00  0.000E+00  0.000E+00  1.00625E+03  3.121E+00  4.525E+01  4.611E+00 -2.375E-01
   1   13    2     8     5    1.9874E+02 -2.4876E+00   2.0123E+02  0.000E+00  0.000E+00  0.000E+00  1.00001E+03  3.138E+00  4.550E+01  4.636E+00 -1.789E-01
   1   13    1     8     6    2.0123E+02 -1.9789E+00   2.0321E+02  0.000E+00  0.000E+00  0.000E+00  9.95026E+02  3.151E+00  4.569E+01  2.793E+00 -2.362E-01
   1    8    6     9     1    0.0000E+00  0.0000E+00   0.0000E+00  0.000E+00  0.000E+00  0.000E+00  1.07875E+03  0.000E+00  4.000E+00  0.000E+00  1.000E+00
   1    8    5     9     2    0.0000E+00  0.0000E+00   0.0000E+00  0.000E+00  0.000E+00  0.000E+00  1.07825E+03  0.000E+00  4.000E+00  0.000E+00  1.000E+00





UNSATURATED ZONE PACKAGE VOLUMETRIC BUDGET FOR  TIME STEP    30 STRESS PERIOD   42
  ------------------------------------------------------------------------------



     CUMULATIVE VOLUMES      L**3       RATES FOR THIS TIME STEP      L**3/T
     ------------------                 ------------------------

           IN:                                      IN:
           ---                                      ---
        INFILTRATION =  1314883043.8793          INFILTRATION =           8.3175

          OUT:                                     OUT:
          ----                                     ----
              UZF ET =  1314057478.8912                UZF ET =           8.3175
        UZF RECHARGE =       73224.0000          UZF RECHARGE =       0.0000E+00

            IN - OUT =      752340.9881              IN - OUT =       0.0000E+00

          STORAGE:                                 STORAGE:
          --------                                 --------
      STORAGE CHANGE =      752341.1376        STORAGE CHANGE =      -5.8097E-16

 PERCENT DISCREPANCY IS DIFFERENCE BETWEEN IN-OUT MINUS CHANGE IN STORAGE
 DIVIDED BY THE AVERAGE OF IN AND OUT TIMES 100

 PERCENT DISCREPANCY =           0.00     PERCENT DISCREPANCY =           0.00






1
  VOLUMETRIC BUDGET FOR AGRICULTURAL FIELDS AT  END OF TIME STEP   30, STRESS PERIOD  42
  ------------------------------------------------------------------------------

     CUMULATIVE VOLUMES      L**3       RATES FOR THIS TIME STEP      L**3/T
     ------------------                 ------------------------

           IN:                                      IN:
           ---                                      ---
               AG WELLS  =  1223420544.0000                 AG WELLS  =           7.4700
      DIVERSION SEGMENTS =           0.0000        DIVERSION SEGMENTS =           0.0000
       IRRIGATION PONDS  =           0.0000         IRRIGATION PONDS  =           0.0000
           GW IRRIGATION =           0.0000             GW IRRIGATION =           0.0000
           SW IRRIGATION =           0.0000             SW IRRIGATION =           0.0000
        SYSTEM LOSSES GW =           0.0000          SYSTEM LOSSES GW =           0.0000
        SYSTEM LOSSES SW =           0.0000          SYSTEM LOSSES SW =           0.0000

                TOTAL IN =  1223420544.0000                  TOTAL IN =           7.4700

          OUT:                                     OUT:
          ----                                     ----
               AG WELLS  =           0.0000                 AG WELLS  =           0.0000
      DIVERSION SEGMENTS =           0.0000        DIVERSION SEGMENTS =           0.0000
       IRRIGATION PONDS  =           0.0000         IRRIGATION PONDS  =           0.0000
           GW IRRIGATION =  1223420544.0000             GW IRRIGATION =           7.4700
           SW IRRIGATION =           0.0000             SW IRRIGATION =           0.0000
        SYSTEM LOSSES GW =           0.0000          SYSTEM LOSSES GW =           0.0000
        SYSTEM LOSSES SW =           0.0000          SYSTEM LOSSES SW =           0.0000

               TOTAL OUT =  1223420544.0000                 TOTAL OUT =           7.4700

                IN - OUT =           0.0000                  IN - OUT =           0.0000

     PERCENT DISCREPANCY =           0.00         PERCENT DISCREPANCY =           0.00



1
  VOLUMETRIC BUDGET FOR ENTIRE MODEL AT END OF TIME STEP   30, STRESS PERIOD  42
  ------------------------------------------------------------------------------

     CUMULATIVE VOLUMES      L**3       RATES FOR THIS TIME STEP      L**3/T
     ------------------                 ------------------------

           IN:                                      IN:
           ---                                      ---
             STORAGE     =  1713341696.0000               STORAGE     =           5.1790
       CONSTANT HEAD     =           0.0000         CONSTANT HEAD     =           0.0000
     HEAD DEP BOUNDS     =    30905176.0000       HEAD DEP BOUNDS     =           0.2882
      STREAM LEAKAGE     =  1337798784.0000        STREAM LEAKAGE     =          13.4524
        UZF RECHARGE     =       73223.9531          UZF RECHARGE     =           0.0000
               GW ET     =           0.0000                 GW ET     =           0.0000
     SURFACE LEAKAGE     =           0.0000       SURFACE LEAKAGE     =           0.0000
           AG WELLS      =           0.0000             AG WELLS      =           0.0000

                TOTAL IN =  3082118912.0000                  TOTAL IN =          18.9196

          OUT:                                     OUT:
          ----                                     ----
             STORAGE     =   725155136.0000               STORAGE     =           1.7407
       CONSTANT HEAD     =           0.0000         CONSTANT HEAD     =           0.0000
     HEAD DEP BOUNDS     =    31532352.0000       HEAD DEP BOUNDS     =           0.2939
      STREAM LEAKAGE     =  1093605504.0000        STREAM LEAKAGE     =           9.4139
        UZF RECHARGE     =           0.0000          UZF RECHARGE     =           0.0000
               GW ET     =     8413934.0000                 GW ET     =           0.0000
     SURFACE LEAKAGE     =           0.0000       SURFACE LEAKAGE     =           0.0000
           AG WELLS      =  1223420544.0000             AG WELLS      =           7.4700

               TOTAL OUT =  3082127360.0000                 TOTAL OUT =          18.9186

                IN - OUT =       -8448.0000                  IN - OUT =       9.8801E-04

     PERCENT DISCREPANCY =          -0.00         PERCENT DISCREPANCY =           0.01






         TIME SUMMARY AT END OF TIME STEP   30 IN STRESS PERIOD   42
                    SECONDS     MINUTES      HOURS       DAYS        YEARS
                    -----------------------------------------------------------
   TIME STEP LENGTH  87667.      1461.1      24.352      1.0147     2.77799E-03
 STRESS PERIOD TIME 2.63000E+06  43833.      730.56      30.440     8.33397E-02
         TOTAL TIME 1.07916E+08 1.79859E+06  29977.      1249.0      3.4196    
1
1
                            STRESS PERIOD NO.   43, LENGTH =   2630000.    
                            -----------------------------------------------

                              NUMBER OF TIME STEPS =    30

                               MULTIPLIER FOR DELT =     1.000

                            INITIAL TIME STEP SIZE =   87666.66    

 REUSING NON-PARAMETER GHB CELLS FROM LAST STRESS PERIOD

      2 GHB CELLS

 REUSING STREAM SEGMENT DATA FROM LAST STRESS PERIOD



            AREAL INFILTRATION RATE
 READING ON UNIT   19 WITH FORMAT: (FREE)              

            1           2           3           4           5           6           7           8           9          10
 ........................................................................................................................
   1   1.0000E-10  2.0000E-10   0.000       0.000       0.000       0.000       0.000       0.000       0.000       0.000    
   2   2.0000E-10  1.0000E-10  2.0000E-10   0.000       0.000      8.0000E-10  8.0000E-10  5.0000E-10   0.000       0.000    
   3    0.000      5.0000E-10  1.0000E-10  1.0000E-10  8.0000E-10  8.0000E-10  5.0000E-10  5.0000E-10   0.000       0.000    
   4   8.0000E-10  5.0000E-10  1.0000E-10  1.0000E-10  1.0000E-10  1.0000E-10  1.0000E-10  1.0000E-10  2.0000E-10   0.000    
   5   8.0000E-10  5.0000E-10  1.0000E-10  1.0000E-10  1.0000E-10  1.0000E-10  1.0000E-10  1.0000E-10  1.0000E-10  1.0000E-10
   6   8.0000E-10  5.0000E-10  5.0000E-10  2.0000E-10  2.0000E-10  1.0000E-10  1.0000E-10  1.0000E-10  1.0000E-10  5.0000E-10
   7   8.0000E-10  5.0000E-10  5.0000E-10  2.0000E-10  2.0000E-10  1.0000E-10  1.0000E-10  2.0000E-10  2.0000E-10   0.000    
   8    0.000      5.0000E-10  5.0000E-10  2.0000E-10  2.0000E-10  1.0000E-10  1.0000E-10  2.0000E-10  5.0000E-10   0.000    
   9    0.000      5.0000E-10  5.0000E-10  2.0000E-10  2.0000E-10  1.0000E-10  1.0000E-10  2.0000E-10  5.0000E-10   0.000    
  10    0.000      5.0000E-10  5.0000E-10  2.0000E-10  2.0000E-10  1.0000E-10  1.0000E-10  2.0000E-10  5.0000E-10  8.0000E-10
  11    0.000      1.0000E-10  1.0000E-10  1.0000E-10  1.0000E-10  1.0000E-10  1.0000E-10  2.0000E-10  5.0000E-10   0.000    
  12   1.0000E-10  1.0000E-10  1.0000E-10  1.0000E-10  1.0000E-10  1.0000E-10  1.0000E-10  1.0000E-10  2.0000E-10   0.000    
  13   1.0000E-10  1.0000E-10  2.0000E-10  2.0000E-10  2.0000E-10  2.0000E-10  2.0000E-10  1.0000E-10  1.0000E-10   0.000    
  14    0.000      2.0000E-10  5.0000E-10  5.0000E-10  5.0000E-10  5.0000E-10  5.0000E-10  2.0000E-10  1.0000E-10   0.000    
  15    0.000       0.000      8.0000E-10  8.0000E-10  8.0000E-10  8.0000E-10   0.000       0.000       0.000       0.000    

                  ET RATE =  1.500000E-07

 USING ET EXTINCTION DEPTH FROM PREVIOUS STRESS PERIOD. CURRENT PERIOD IS:      43

 USING EXTINCTION WATER CONTENT FROM PREVIOUS STRESS PERIOD. CURRENT PERIOD IS:      43

 USING AIR ENTRY PRESSURE FROM PREVIOUS STRESS PERIOD. CURRENT PERIOD IS:      43

 USING ROOT PRESSURE HEAD FROM PREVIOUS STRESS PERIOD. CURRENT PERIOD IS:      43

 USING ROOT ACTIVITY FROM PREVIOUS STRESS PERIOD. CURRENT PERIOD IS:      43

 PROCESSING AG STRESS PERIOD DATA

 READING AG STRESS PERIOD DATA

 READING IRRIGATION SEGMENT

 READING IRRIGATION WELL

 READING SUPPLEMENTAL WELL

 NO IRRPOND OR REUSING IRRPOND DATA FROM LAST STRESS PERIOD

 END PROCESSING AG STRESS PERIOD DATA OPTIONS
 
 SOLVING FOR HEAD 
                                                   Max.-Head-Change                         Max.-Flux-Residual
  Residual-Control   Outer-Iter.   Inner-Iter.     Column Row Layer    Maximum-Head-Change  Column Row Layer    Maximum-Flux-Residual          L2-NORM 
          0                 1           2             4    7     1      -0.5816093638E-01       4    7    1        -0.3041600722E+01      0.7189934827E+01
          0                 2           2             4    7     1       0.5657445774E-02       4    7    1         0.3041583319E+00      0.7189857960E+00
          0                 3           2             4    7     1      -0.3852513514E-03       4    7    1        -0.2129110892E-01      0.5032902614E-01
          0                 4           1             4    7     1       0.1532951031E-04       4    7    1         0.8708074836E-03      0.2058456664E-02

    ------------------------------------------------
       NWT REQUIRED            4 OUTER ITERATIONS 
       AND A TOTAL OF          7 INNER ITERATIONS.
    ------------------------------------------------

 NO OUTPUT CONTROL FOR STRESS PERIOD   43   TIME STEP    1
 
 SOLVING FOR HEAD 
                                                   Max.-Head-Change                         Max.-Flux-Residual
  Residual-Control   Outer-Iter.   Inner-Iter.     Column Row Layer    Maximum-Head-Change  Column Row Layer    Maximum-Flux-Residual          L2-NORM 
          0                 1           2             4    7     1      -0.5776302430E-01       4    7    1        -0.3021950765E+01      0.7061805020E+01
          0                 2           2             4    7     1       0.5618737317E-02       4    7    1         0.3021931655E+00      0.7061608435E+00
          0                 3           2             4    7     1      -0.3826154734E-03       4    7    1        -0.2115354882E-01      0.4943010896E-01
          0                 4           1             4    7     1       0.1522462642E-04       4    7    1         0.8651812859E-03      0.2021573005E-02

    ------------------------------------------------
       NWT REQUIRED            4 OUTER ITERATIONS 
       AND A TOTAL OF          7 INNER ITERATIONS.
    ------------------------------------------------

 NO OUTPUT CONTROL FOR STRESS PERIOD   43   TIME STEP    2
 
 SOLVING FOR HEAD 
                                                   Max.-Head-Change                         Max.-Flux-Residual
  Residual-Control   Outer-Iter.   Inner-Iter.     Column Row Layer    Maximum-Head-Change  Column Row Layer    Maximum-Flux-Residual          L2-NORM 
          0                 1           2             4    7     1      -0.5734712381E-01       4    7    1        -0.3001267420E+01      0.6937514806E+01
          0                 2           2             4    7     1       0.5578279370E-02       4    7    1         0.3001246801E+00      0.6937336741E+00
          0                 3           2             4    7     1      -0.3798604581E-03       4    7    1        -0.2100875619E-01      0.4856041932E-01
          0                 4           1             4    7     1       0.1511500157E-04       4    7    1         0.8592592403E-03      0.1986044719E-02

    ------------------------------------------------
       NWT REQUIRED            4 OUTER ITERATIONS 
       AND A TOTAL OF          7 INNER ITERATIONS.
    ------------------------------------------------

 NO OUTPUT CONTROL FOR STRESS PERIOD   43   TIME STEP    3
 
 SOLVING FOR HEAD 
                                                   Max.-Head-Change                         Max.-Flux-Residual
  Residual-Control   Outer-Iter.   Inner-Iter.     Column Row Layer    Maximum-Head-Change  Column Row Layer    Maximum-Flux-Residual          L2-NORM 
          0                 1           2             4    7     1      -0.5691520119E-01       4    7    1        -0.2979658709E+01      0.6818885008E+01
          0                 2           2             4    7     1       0.5536263172E-02       4    7    1         0.2979636759E+00      0.6818723733E+00
          0                 3           2             4    7     1      -0.3769993293E-03       4    7    1        -0.2085748709E-01      0.4773026402E-01
          0                 4           1             4    7     1       0.1500115465E-04       4    7    1         0.8530723185E-03      0.1952119001E-02

    ------------------------------------------------
       NWT REQUIRED            4 OUTER ITERATIONS 
       AND A TOTAL OF          7 INNER ITERATIONS.
    ------------------------------------------------

 NO OUTPUT CONTROL FOR STRESS PERIOD   43   TIME STEP    4
 
 SOLVING FOR HEAD 
                                                   Max.-Head-Change                         Max.-Flux-Residual
  Residual-Control   Outer-Iter.   Inner-Iter.     Column Row Layer    Maximum-Head-Change  Column Row Layer    Maximum-Flux-Residual          L2-NORM 
          0                 1           2             4    7     1      -0.5646896999E-01       4    7    1        -0.2957219264E+01      0.6705525146E+01
          0                 2           2             4    7     1       0.5492855383E-02       4    7    1         0.2957196150E+00      0.6705378133E+00
          0                 3           2             4    7     1      -0.3740434360E-03       4    7    1        -0.2070040386E-01      0.4693695387E-01
          0                 4           1             4    7     1       0.1488353672E-04       4    7    1         0.8466475933E-03      0.1919674446E-02

    ------------------------------------------------
       NWT REQUIRED            4 OUTER ITERATIONS 
       AND A TOTAL OF          7 INNER ITERATIONS.
    ------------------------------------------------

 NO OUTPUT CONTROL FOR STRESS PERIOD   43   TIME STEP    5
 
 SOLVING FOR HEAD 
                                                   Max.-Head-Change                         Max.-Flux-Residual
  Residual-Control   Outer-Iter.   Inner-Iter.     Column Row Layer    Maximum-Head-Change  Column Row Layer    Maximum-Flux-Residual          L2-NORM 
          0                 1           2             4    7     1      -0.5600990700E-01       4    7    1        -0.2934030617E+01      0.6597071175E+01
          0                 2           2             4    7     1       0.5448197879E-02       4    7    1         0.2934006493E+00      0.6596974645E+00
          0                 3           2             4    7     1      -0.3710007284E-03       4    7    1        -0.2053807715E-01      0.4609438974E-01
          0                 4           1             4    7     1       0.1476246462E-04       4    7    1         0.8400084253E-03      0.1885239123E-02

    ------------------------------------------------
       NWT REQUIRED            4 OUTER ITERATIONS 
       AND A TOTAL OF          7 INNER ITERATIONS.
    ------------------------------------------------

 NO OUTPUT CONTROL FOR STRESS PERIOD   43   TIME STEP    6
 
 SOLVING FOR HEAD 
                                                   Max.-Head-Change                         Max.-Flux-Residual
  Residual-Control   Outer-Iter.   Inner-Iter.     Column Row Layer    Maximum-Head-Change  Column Row Layer    Maximum-Flux-Residual          L2-NORM 
          0                 1           2             4    7     1      -0.5553953263E-01       4    7    1        -0.2910176657E+01      0.6493196425E+01
          0                 2           2             4    7     1       0.5402459865E-02       4    7    1         0.2910151666E+00      0.6500992521E+00
          0                 3           2             4    7     1      -0.3678878532E-03       4    7    1        -0.2037109409E-01      0.4550639284E-01
          0                 4           1             4    7     1       0.1463860011E-04       4    7    1         0.8331787897E-03      0.1883496541E-02

    ------------------------------------------------
       NWT REQUIRED            4 OUTER ITERATIONS 
       AND A TOTAL OF          7 INNER ITERATIONS.
    ------------------------------------------------

 NO OUTPUT CONTROL FOR STRESS PERIOD   43   TIME STEP    7
 
 SOLVING FOR HEAD 
                                                   Max.-Head-Change                         Max.-Flux-Residual
  Residual-Control   Outer-Iter.   Inner-Iter.     Column Row Layer    Maximum-Head-Change  Column Row Layer    Maximum-Flux-Residual          L2-NORM 
          0                 1           2             4    7     1      -0.5505920525E-01       4    7    1        -0.2885735360E+01      0.6392929873E+01
          0                 2           2             4    7     1       0.5355720868E-02       4    7    1         0.2885709629E+00      0.6392843498E+00
          0                 3           2             4    7     1      -0.3647051121E-03       4    7    1        -0.2020000049E-01      0.4474943127E-01
          0                 4           1             4    7     1       0.1451195583E-04       4    7    1         0.8261810610E-03      0.1830216545E-02

    ------------------------------------------------
       NWT REQUIRED            4 OUTER ITERATIONS 
       AND A TOTAL OF          7 INNER ITERATIONS.
    ------------------------------------------------

 NO OUTPUT CONTROL FOR STRESS PERIOD   43   TIME STEP    8
 
 SOLVING FOR HEAD 
                                                   Max.-Head-Change                         Max.-Flux-Residual
  Residual-Control   Outer-Iter.   Inner-Iter.     Column Row Layer    Maximum-Head-Change  Column Row Layer    Maximum-Flux-Residual          L2-NORM 
          0                 1           2             4    7     1      -0.5457028640E-01       4    7    1        -0.2860779681E+01      0.6296662251E+01
          0                 2           2             4    7     1       0.5308161485E-02       4    7    1         0.2860753331E+00      0.6296582733E+00
          0                 3           2             4    7     1      -0.3614665026E-03       4    7    1        -0.2002530688E-01      0.4407567736E-01
          0                 4           1             4    7     1       0.1438308844E-04       4    7    1         0.8190360682E-03      0.1802665787E-02

    ------------------------------------------------
       NWT REQUIRED            4 OUTER ITERATIONS 
       AND A TOTAL OF          7 INNER ITERATIONS.
    ------------------------------------------------

 NO OUTPUT CONTROL FOR STRESS PERIOD   43   TIME STEP    9
 
 SOLVING FOR HEAD 
                                                   Max.-Head-Change                         Max.-Flux-Residual
  Residual-Control   Outer-Iter.   Inner-Iter.     Column Row Layer    Maximum-Head-Change  Column Row Layer    Maximum-Flux-Residual          L2-NORM 
          0                 1           2             4    7     1      -0.5407399481E-01       4    7    1        -0.2835377742E+01      0.6204215315E+01
          0                 2           2             4    7     1       0.5259885100E-02       4    7    1         0.2835350881E+00      0.6204140636E+00
          0                 3           2             4    7     1      -0.3581790675E-03       4    7    1        -0.1984749015E-01      0.4342851701E-01
          0                 4           1             4    7     1       0.1425227851E-04       4    7    1         0.8117633672E-03      0.1776195400E-02

    ------------------------------------------------
       NWT REQUIRED            4 OUTER ITERATIONS 
       AND A TOTAL OF          7 INNER ITERATIONS.
    ------------------------------------------------

 NO OUTPUT CONTROL FOR STRESS PERIOD   43   TIME STEP   10
 
 SOLVING FOR HEAD 
                                                   Max.-Head-Change                         Max.-Flux-Residual
  Residual-Control   Outer-Iter.   Inner-Iter.     Column Row Layer    Maximum-Head-Change  Column Row Layer    Maximum-Flux-Residual          L2-NORM 
          0                 1           2             4    7     1      -0.5357147806E-01       4    7    1        -0.2809593541E+01      0.6115343293E+01
          0                 2           2             4    7     1       0.5211003323E-02       4    7    1         0.2809566269E+00      0.6115275159E+00
          0                 3           2             4    7     1      -0.3548504059E-03       4    7    1        -0.1966699818E-01      0.4280662989E-01
          0                 4           1             4    7     1       0.1411982812E-04       4    7    1         0.8043812390E-03      0.1750787703E-02

    ------------------------------------------------
       NWT REQUIRED            4 OUTER ITERATIONS 
       AND A TOTAL OF          7 INNER ITERATIONS.
    ------------------------------------------------

 NO OUTPUT CONTROL FOR STRESS PERIOD   43   TIME STEP   11
 
 SOLVING FOR HEAD 
                                                   Max.-Head-Change                         Max.-Flux-Residual
  Residual-Control   Outer-Iter.   Inner-Iter.     Column Row Layer    Maximum-Head-Change  Column Row Layer    Maximum-Flux-Residual          L2-NORM 
          0                 1           2             4    7     1      -0.5306367504E-01       4    7    1        -0.2783479270E+01      0.6029825057E+01
          0                 2           2             4    7     1       0.5161607473E-02       4    7    1         0.2783451679E+00      0.6029761599E+00
          0                 3           2             4    7     1      -0.3514867359E-03       4    7    1        -0.1948419628E-01      0.4220806279E-01
          0                 4           1             4    7     1       0.1398598434E-04       4    7    1         0.7969046167E-03      0.1726286308E-02

    ------------------------------------------------
       NWT REQUIRED            4 OUTER ITERATIONS 
       AND A TOTAL OF          7 INNER ITERATIONS.
    ------------------------------------------------

 NO OUTPUT CONTROL FOR STRESS PERIOD   43   TIME STEP   12
 
 SOLVING FOR HEAD 
                                                   Max.-Head-Change                         Max.-Flux-Residual
  Residual-Control   Outer-Iter.   Inner-Iter.     Column Row Layer    Maximum-Head-Change  Column Row Layer    Maximum-Flux-Residual          L2-NORM 
          0                 1           2             4    7     1      -0.5255159668E-01       4    7    1        -0.2757090922E+01      0.5947467958E+01
          0                 2           2             4    7     1       0.5111795873E-02       4    7    1         0.2757063095E+00      0.5947408887E+00
          0                 3           2             4    7     1      -0.3480947537E-03       4    7    1        -0.1929947634E-01      0.4163163460E-01
          0                 4           1             4    7     1       0.1385101380E-04       4    7    1         0.7893495451E-03      0.1702710453E-02

    ------------------------------------------------
       NWT REQUIRED            4 OUTER ITERATIONS 
       AND A TOTAL OF          7 INNER ITERATIONS.
    ------------------------------------------------

 NO OUTPUT CONTROL FOR STRESS PERIOD   43   TIME STEP   13
 
 SOLVING FOR HEAD 
                                                   Max.-Head-Change                         Max.-Flux-Residual
  Residual-Control   Outer-Iter.   Inner-Iter.     Column Row Layer    Maximum-Head-Change  Column Row Layer    Maximum-Flux-Residual          L2-NORM 
          0                 1           2             4    7     1      -0.5203630647E-01       4    7    1        -0.2730488221E+01      0.5868073622E+01
          0                 2           2             4    7     1       0.5061671959E-02       4    7    1         0.2730460235E+00      0.5868018093E+00
          0                 3           2             4    7     1      -0.3446815038E-03       4    7    1        -0.1911325639E-01      0.4107592940E-01
          0                 4           1             4    7     1       0.1371519800E-04       4    7    1         0.7817331671E-03      0.1680000784E-02

    ------------------------------------------------
       NWT REQUIRED            4 OUTER ITERATIONS 
       AND A TOTAL OF          7 INNER ITERATIONS.
    ------------------------------------------------

 NO OUTPUT CONTROL FOR STRESS PERIOD   43   TIME STEP   14
 
 SOLVING FOR HEAD 
                                                   Max.-Head-Change                         Max.-Flux-Residual
  Residual-Control   Outer-Iter.   Inner-Iter.     Column Row Layer    Maximum-Head-Change  Column Row Layer    Maximum-Flux-Residual          L2-NORM 
          0                 1           2             4    7     1      -0.5151853434E-01       4    7    1        -0.2703711693E+01      0.5791482393E+01
          0                 2           2             4    7     1       0.5011306724E-02       4    7    1         0.2703683616E+00      0.5791430127E+00
          0                 3           2             4    7     1      -0.3412518190E-03       4    7    1        -0.1892582006E-01      0.4053981652E-01
          0                 4           1             4    7     1       0.1357872747E-04       4    7    1         0.7740669980E-03      0.1658052862E-02

    ------------------------------------------------
       NWT REQUIRED            4 OUTER ITERATIONS 
       AND A TOTAL OF          7 INNER ITERATIONS.
    ------------------------------------------------

 NO OUTPUT CONTROL FOR STRESS PERIOD   43   TIME STEP   15
 
 SOLVING FOR HEAD 
                                                   Max.-Head-Change                         Max.-Flux-Residual
  Residual-Control   Outer-Iter.   Inner-Iter.     Column Row Layer    Maximum-Head-Change  Column Row Layer    Maximum-Flux-Residual          L2-NORM 
          0                 1           2             4    7     1      -0.5099908351E-01       4    7    1        -0.2676806493E+01      0.5717531720E+01
          0                 2           2             4    7     1       0.4960778290E-02       4    7    1         0.2676778388E+00      0.5717482651E+00
          0                 3           2             4    7     1      -0.3378110202E-03       4    7    1        -0.1873748341E-01      0.4002224415E-01
          0                 4           1             4    7     1       0.1344181485E-04       4    7    1         0.7663640249E-03      0.1636912946E-02

    ------------------------------------------------
       NWT REQUIRED            4 OUTER ITERATIONS 
       AND A TOTAL OF          7 INNER ITERATIONS.
    ------------------------------------------------

 NO OUTPUT CONTROL FOR STRESS PERIOD   43   TIME STEP   16
 
 SOLVING FOR HEAD 
                                                   Max.-Head-Change                         Max.-Flux-Residual
  Residual-Control   Outer-Iter.   Inner-Iter.     Column Row Layer    Maximum-Head-Change  Column Row Layer    Maximum-Flux-Residual          L2-NORM 
          0                 1           2             4    7     1      -0.5047883408E-01       4    7    1        -0.2649821573E+01      0.5646080312E+01
          0                 2           2             4    7     1       0.4910172257E-02       4    7    1         0.2649793497E+00      0.5646038754E+00
          0                 3           2             4    7     1      -0.3343649361E-03       4    7    1        -0.1854858905E-01      0.3952215972E-01
          0                 4           1             4    7     1       0.1330469166E-04       4    7    1         0.7586382110E-03      0.1616451753E-02

    ------------------------------------------------
       NWT REQUIRED            4 OUTER ITERATIONS 
       AND A TOTAL OF          7 INNER ITERATIONS.
    ------------------------------------------------

 NO OUTPUT CONTROL FOR STRESS PERIOD   43   TIME STEP   17
 
 SOLVING FOR HEAD 
                                                   Max.-Head-Change                         Max.-Flux-Residual
  Residual-Control   Outer-Iter.   Inner-Iter.     Column Row Layer    Maximum-Head-Change  Column Row Layer    Maximum-Flux-Residual          L2-NORM 
          0                 1           2             4    7     1      -0.4995819640E-01       4    7    1        -0.2622780650E+01      0.5576989633E+01
          0                 2           2             4    7     1       0.4859528532E-02       4    7    1         0.2622752653E+00      0.5576945667E+00
          0                 3           2             4    7     1      -0.3309162851E-03       4    7    1        -0.1835930298E-01      0.3903850759E-01
          0                 4           1             4    7     1       0.1316746682E-04       4    7    1         0.7508964113E-03      0.1596661113E-02

    ------------------------------------------------
       NWT REQUIRED            4 OUTER ITERATIONS 
       AND A TOTAL OF          7 INNER ITERATIONS.
    ------------------------------------------------

 NO OUTPUT CONTROL FOR STRESS PERIOD   43   TIME STEP   18
 
 SOLVING FOR HEAD 
                                                   Max.-Head-Change                         Max.-Flux-Residual
  Residual-Control   Outer-Iter.   Inner-Iter.     Column Row Layer    Maximum-Head-Change  Column Row Layer    Maximum-Flux-Residual          L2-NORM 
          0                 1           2             4    7     1      -0.4943821477E-01       4    7    1        -0.2595741524E+01      0.5510144093E+01
          0                 2           2             4    7     1       0.4808948692E-02       4    7    1         0.2595713652E+00      0.5510102263E+00
          0                 3           2             4    7     1      -0.3274719840E-03       4    7    1        -0.1817002979E-01      0.3857062631E-01
          0                 4           1             4    7     1       0.1303041489E-04       4    7    1         0.7431551385E-03      0.1577522236E-02

    ------------------------------------------------
       NWT REQUIRED            4 OUTER ITERATIONS 
       AND A TOTAL OF          7 INNER ITERATIONS.
    ------------------------------------------------

 NO OUTPUT CONTROL FOR STRESS PERIOD   43   TIME STEP   19
 
 SOLVING FOR HEAD 
                                                   Max.-Head-Change                         Max.-Flux-Residual
  Residual-Control   Outer-Iter.   Inner-Iter.     Column Row Layer    Maximum-Head-Change  Column Row Layer    Maximum-Flux-Residual          L2-NORM 
          0                 1           2             4    7     1      -0.4891905717E-01       4    7    1        -0.2568714517E+01      0.5445419695E+01
          0                 2           2             4    7     1       0.4758449067E-02       4    7    1         0.2568686811E+00      0.5445379858E+00
          0                 3           2             4    7     1      -0.3240331440E-03       4    7    1        -0.1798084165E-01      0.3811758728E-01
          0                 4           1             4    7     1       0.1289358033E-04       4    7    1         0.7354173324E-03      0.1559018890E-02

    ------------------------------------------------
       NWT REQUIRED            4 OUTER ITERATIONS 
       AND A TOTAL OF          7 INNER ITERATIONS.
    ------------------------------------------------

 NO OUTPUT CONTROL FOR STRESS PERIOD   43   TIME STEP   20
 
 SOLVING FOR HEAD 
                                                   Max.-Head-Change                         Max.-Flux-Residual
  Residual-Control   Outer-Iter.   Inner-Iter.     Column Row Layer    Maximum-Head-Change  Column Row Layer    Maximum-Flux-Residual          L2-NORM 
          0                 1           2             4    7     1      -0.4840153169E-01       4    7    1        -0.2541744856E+01      0.5382714404E+01
          0                 2           2             4    7     1       0.4708108255E-02       4    7    1         0.2541717352E+00      0.5382676382E+00
          0                 3           2             4    7     1      -0.3206051186E-03       4    7    1        -0.1779205518E-01      0.3767867033E-01
          0                 4           1             4    7     1       0.1275717588E-04       4    7    1         0.7276959548E-03      0.1541055394E-02

    ------------------------------------------------
       NWT REQUIRED            4 OUTER ITERATIONS 
       AND A TOTAL OF          7 INNER ITERATIONS.
    ------------------------------------------------

 NO OUTPUT CONTROL FOR STRESS PERIOD   43   TIME STEP   21
 
 SOLVING FOR HEAD 
                                                   Max.-Head-Change                         Max.-Flux-Residual
  Residual-Control   Outer-Iter.   Inner-Iter.     Column Row Layer    Maximum-Head-Change  Column Row Layer    Maximum-Flux-Residual          L2-NORM 
          0                 1           2             4    7     1      -0.4788585899E-01       4    7    1        -0.2514845229E+01      0.5321933773E+01
          0                 2           2             4    7     1       0.4657947718E-02       4    7    1         0.2514817961E+00      0.5321897495E+00
          0                 3           2             4    7     1      -0.3171893682E-03       4    7    1        -0.1760375912E-01      0.3725324810E-01
          0                 4           1             4    7     1       0.1262126015E-04       4    7    1         0.7199946360E-03      0.1523674556E-02

    ------------------------------------------------
       NWT REQUIRED            4 OUTER ITERATIONS 
       AND A TOTAL OF          7 INNER ITERATIONS.
    ------------------------------------------------

 NO OUTPUT CONTROL FOR STRESS PERIOD   43   TIME STEP   22
 
 SOLVING FOR HEAD 
                                                   Max.-Head-Change                         Max.-Flux-Residual
  Residual-Control   Outer-Iter.   Inner-Iter.     Column Row Layer    Maximum-Head-Change  Column Row Layer    Maximum-Flux-Residual          L2-NORM 
          0                 1           2             4    7     1      -0.4737289224E-01       4    7    1        -0.2488063589E+01      0.5262980561E+01
          0                 2           2             4    7     1       0.4608050437E-02       4    7    1         0.2488036584E+00      0.5262945767E+00
          0                 3           2             4    7     1      -0.3137915444E-03       4    7    1        -0.1741628916E-01      0.3684057616E-01
          0                 4           1             4    7     1       0.1248605775E-04       4    7    1         0.7123270977E-03      0.1506779265E-02

    ------------------------------------------------
       NWT REQUIRED            4 OUTER ITERATIONS 
       AND A TOTAL OF          7 INNER ITERATIONS.
    ------------------------------------------------

 NO OUTPUT CONTROL FOR STRESS PERIOD   43   TIME STEP   23
 
 SOLVING FOR HEAD 
                                                   Max.-Head-Change                         Max.-Flux-Residual
  Residual-Control   Outer-Iter.   Inner-Iter.     Column Row Layer    Maximum-Head-Change  Column Row Layer    Maximum-Flux-Residual          L2-NORM 
          0                 1           2             4    7     1      -0.4686262774E-01       4    7    1        -0.2461400361E+01      0.5205767992E+01
          0                 2           2             4    7     1       0.4558416050E-02       4    7    1         0.2461373646E+00      0.5205734637E+00
          0                 3           2             4    7     1      -0.3104116229E-03       4    7    1        -0.1722964825E-01      0.3644010722E-01
          0                 4           1             4    7     1       0.1235156764E-04       4    7    1         0.7046934836E-03      0.1490394204E-02

    ------------------------------------------------
       NWT REQUIRED            4 OUTER ITERATIONS 
       AND A TOTAL OF          7 INNER ITERATIONS.
    ------------------------------------------------

 NO OUTPUT CONTROL FOR STRESS PERIOD   43   TIME STEP   24
 
 SOLVING FOR HEAD 
                                                   Max.-Head-Change                         Max.-Flux-Residual
  Residual-Control   Outer-Iter.   Inner-Iter.     Column Row Layer    Maximum-Head-Change  Column Row Layer    Maximum-Flux-Residual          L2-NORM 
          0                 1           2             4    7     1      -0.4635570950E-01       4    7    1        -0.2434891860E+01      0.5150222508E+01
          0                 2           2             4    7     1       0.4509107193E-02       4    7    1         0.2434865455E+00      0.5150190430E+00
          0                 3           2             4    7     1      -0.3070538676E-03       4    7    1        -0.1704409053E-01      0.3605130266E-01
          0                 4           1             4    7     1       0.1221795907E-04       4    7    1         0.6971041589E-03      0.1474495445E-02

    ------------------------------------------------
       NWT REQUIRED            4 OUTER ITERATIONS 
       AND A TOTAL OF          7 INNER ITERATIONS.
    ------------------------------------------------

 NO OUTPUT CONTROL FOR STRESS PERIOD   43   TIME STEP   25
 
 SOLVING FOR HEAD 
                                                   Max.-Head-Change                         Max.-Flux-Residual
  Residual-Control   Outer-Iter.   Inner-Iter.     Column Row Layer    Maximum-Head-Change  Column Row Layer    Maximum-Flux-Residual          L2-NORM 
          0                 1           2             4    7     1      -0.4585247005E-01       4    7    1        -0.2408556873E+01      0.5096266662E+01
          0                 2           2             4    7     1       0.4460156210E-02       4    7    1         0.2408530799E+00      0.5096235755E+00
          0                 3           2             4    7     1      -0.3037204823E-03       4    7    1        -0.1685974755E-01      0.3567362809E-01
          0                 4           1             4    7     1       0.1208532068E-04       4    7    1         0.6895645147E-03      0.1459052188E-02

    ------------------------------------------------
       NWT REQUIRED            4 OUTER ITERATIONS 
       AND A TOTAL OF          7 INNER ITERATIONS.
    ------------------------------------------------

 NO OUTPUT CONTROL FOR STRESS PERIOD   43   TIME STEP   26
 
 SOLVING FOR HEAD 
                                                   Max.-Head-Change                         Max.-Flux-Residual
  Residual-Control   Outer-Iter.   Inner-Iter.     Column Row Layer    Maximum-Head-Change  Column Row Layer    Maximum-Flux-Residual          L2-NORM 
          0                 1           2             4    7     1      -0.4535307082E-01       4    7    1        -0.2382405346E+01      0.5043823957E+01
          0                 2           2             4    7     1       0.4411578801E-02       4    7    1         0.2382379618E+00      0.5043794103E+00
          0                 3           2             4    7     1      -0.3004125358E-03       4    7    1        -0.1667668887E-01      0.3530653622E-01
          0                 4           1             4    7     1       0.1195369437E-04       4    7    1         0.6820774070E-03      0.1444039530E-02

    ------------------------------------------------
       NWT REQUIRED            4 OUTER ITERATIONS 
       AND A TOTAL OF          7 INNER ITERATIONS.
    ------------------------------------------------

 NO OUTPUT CONTROL FOR STRESS PERIOD   43   TIME STEP   27
 
 SOLVING FOR HEAD 
                                                   Max.-Head-Change                         Max.-Flux-Residual
  Residual-Control   Outer-Iter.   Inner-Iter.     Column Row Layer    Maximum-Head-Change  Column Row Layer    Maximum-Flux-Residual          L2-NORM 
          0                 1           2             4    7     1      -0.4485778930E-01       4    7    1        -0.2356452946E+01      0.4992840226E+01
          0                 2           2             4    7     1       0.4363401954E-02       4    7    1         0.2356427581E+00      0.4992824326E+00
          0                 3           2             4    7     1      -0.2971318655E-03       4    7    1        -0.1649502418E-01      0.3494975316E-01
          0                 4           1             4    7     1       0.1182315337E-04       4    7    1         0.6746473098E-03      0.1429445640E-02

    ------------------------------------------------
       NWT REQUIRED            4 OUTER ITERATIONS 
       AND A TOTAL OF          7 INNER ITERATIONS.
    ------------------------------------------------

 NO OUTPUT CONTROL FOR STRESS PERIOD   43   TIME STEP   28
 
 SOLVING FOR HEAD 
                                                   Max.-Head-Change                         Max.-Flux-Residual
  Residual-Control   Outer-Iter.   Inner-Iter.     Column Row Layer    Maximum-Head-Change  Column Row Layer    Maximum-Flux-Residual          L2-NORM 
          0                 1           2             4    7     1      -0.4436700524E-01       4    7    1        -0.2330721360E+01      0.4943249231E+01
          0                 2           2             4    7     1       0.4315662605E-02       4    7    1         0.2330696367E+00      0.4943221395E+00
          0                 3           2             4    7     1      -0.2938809877E-03       4    7    1        -0.1631490526E-01      0.3460253882E-01
          0                 4           1             4    7     1       0.1169379796E-04       4    7    1         0.6672804448E-03      0.1415243550E-02

    ------------------------------------------------
       NWT REQUIRED            4 OUTER ITERATIONS 
       AND A TOTAL OF          7 INNER ITERATIONS.
    ------------------------------------------------

 NO OUTPUT CONTROL FOR STRESS PERIOD   43   TIME STEP   29
 
 SOLVING FOR HEAD 
                                                   Max.-Head-Change                         Max.-Flux-Residual
  Residual-Control   Outer-Iter.   Inner-Iter.     Column Row Layer    Maximum-Head-Change  Column Row Layer    Maximum-Flux-Residual          L2-NORM 
          0                 1           2             4    7     1      -0.4388092780E-01       4    7    1        -0.2305222978E+01      0.4894992389E+01
          0                 2           2             4    7     1       0.4268381095E-02       4    7    1         0.2305198368E+00      0.4894965529E+00
          0                 3           2             4    7     1      -0.2906612865E-03       4    7    1        -0.1613641883E-01      0.3426475060E-01
          0                 4           1             4    7     1       0.1156568293E-04       4    7    1         0.6599803378E-03      0.1401424768E-02

    ------------------------------------------------
       NWT REQUIRED            4 OUTER ITERATIONS 
       AND A TOTAL OF          7 INNER ITERATIONS.
    ------------------------------------------------

 NO OUTPUT CONTROL FOR STRESS PERIOD   43   TIME STEP   30



 STREAM LISTING     PERIOD     43   STEP       30

 LAYER ROW COL. STREAM  RCH.  FLOW INTO     FLOW TO   FLOW OUT OF   OVRLND.     DIRECT     STREAM       STREAM     STREAM     STREAM   STREAMBED  STREAMBED
                SEG.NO.  NO.  STRM. RCH.    AQUIFER    STRM. RCH.    RUNOFF     PRECIP       ET          HEAD       DEPTH      WIDTH   CONDCTNC.   GRADIENT

   1    1    1     1     1    4.3499E+01  3.1564E-01   4.3183E+01  0.000E+00  0.000E+00  0.000E+00  1.09440E+03  1.356E+00  1.610E+01  7.246E-02  1.452E+00
   1    2    2     1     2    4.3183E+01  4.8894E-01   4.2694E+01  0.000E+00  0.000E+00  0.000E+00  1.08941E+03  1.354E+00  1.604E+01  1.123E-01  1.451E+00
   1    3    3     1     3    4.2694E+01  4.1710E-01   4.2277E+01  0.000E+00  0.000E+00  0.000E+00  1.08377E+03  1.350E+00  1.598E+01  9.588E-02  1.450E+00
   1    3    4     1     4    4.2277E+01  3.8418E-01   4.1893E+01  0.000E+00  0.000E+00  0.000E+00  1.07876E+03  1.347E+00  1.592E+01  8.837E-02  1.449E+00
   1    4    5     2     1    3.9893E+01  3.5834E-01   3.9534E+01  0.000E+00  0.000E+00  0.000E+00  1.07353E+03  1.594E+00  1.200E+01  7.800E-02  1.531E+00
   1    5    6     2     2    3.9534E+01  2.7519E-01   3.9259E+01  0.000E+00  0.000E+00  0.000E+00  1.06810E+03  1.586E+00  1.200E+01  6.000E-02  1.529E+00
   1    6    6     2     3    3.9259E+01  2.7479E-01   3.8985E+01  0.000E+00  0.000E+00  0.000E+00  1.06337E+03  1.580E+00  1.200E+01  6.000E-02  1.527E+00
   1    7    6     2     4    3.8985E+01  2.7439E-01   3.8710E+01  0.000E+00  0.000E+00  0.000E+00  1.05865E+03  1.573E+00  1.200E+01  6.000E-02  1.524E+00
   1    8    6     2     5    3.8710E+01  2.7399E-01   3.8436E+01  0.000E+00  0.000E+00  0.000E+00  1.05392E+03  1.566E+00  1.200E+01  6.000E-02  1.522E+00
   1    3    5     3     1    2.0000E+00  2.8252E-01   1.7175E+00  0.000E+00  0.000E+00  0.000E+00  1.07555E+03  1.909E+00  9.636E+00  7.227E-02  1.955E+00
   1    3    6     3     2    1.7175E+00  2.4905E-01   1.4684E+00  0.000E+00  0.000E+00  0.000E+00  1.07264E+03  1.727E+00  8.909E+00  6.682E-02  1.864E+00
   1    3    7     3     3    1.4684E+00  1.9718E-01   1.2712E+00  0.000E+00  0.000E+00  0.000E+00  1.06987E+03  1.555E+00  8.218E+00  5.547E-02  1.777E+00
   1    4    8     3     4    1.2712E+00  2.2567E-01   1.0456E+00  0.000E+00  0.000E+00  0.000E+00  1.06682E+03  1.364E+00  7.455E+00  6.709E-02  1.682E+00
   1    5    8     3     5    1.0456E+00  1.5790E-01   8.8768E-01  0.000E+00  0.000E+00  0.000E+00  1.06362E+03  1.164E+00  6.655E+00  4.991E-02  1.582E+00
   1    6    8     3     6    8.8768E-01  5.5980E-02   8.3170E-01  0.000E+00  0.000E+00  0.000E+00  1.06158E+03  1.036E+00  6.145E+00  1.844E-02  1.518E+00
   1    5   10     4     1    1.0000E+01  9.0919E-02   9.9091E+00  0.000E+00  0.000E+00  0.000E+00  1.07836E+03  6.368E-01  1.000E+01  2.500E-02  1.212E+00
   1    5    9     4     2    9.9091E+00  1.8158E-01   9.7275E+00  0.000E+00  0.000E+00  0.000E+00  1.07154E+03  6.315E-01  1.000E+01  5.000E-02  1.211E+00
   1    6    8     4     3    9.7275E+00  1.2689E-01   9.6006E+00  0.000E+00  0.000E+00  0.000E+00  1.06381E+03  6.256E-01  1.000E+01  3.500E-02  1.209E+00
   1    6    8     5     1    1.0432E+01  2.2686E-01   1.0205E+01  0.000E+00  0.000E+00  0.000E+00  1.05868E+03  6.790E-01  1.542E+01  6.166E-02  1.226E+00
   1    7    7     5     2    1.0205E+01  2.7894E-01   9.9265E+00  0.000E+00  0.000E+00  0.000E+00  1.05417E+03  6.732E-01  1.519E+01  7.594E-02  1.224E+00
   1    8    7     5     3    9.9265E+00  1.9221E-01   9.7343E+00  0.000E+00  0.000E+00  0.000E+00  1.04992E+03  6.676E-01  1.497E+01  5.241E-02  1.223E+00
   1    8    6     5     4    9.7343E+00  1.3577E-01   9.5985E+00  0.000E+00  0.000E+00  0.000E+00  1.04691E+03  6.637E-01  1.482E+01  3.706E-02  1.221E+00
   1    9    6     6     1    4.8035E+01  2.8821E-01   4.7746E+01  0.000E+00  0.000E+00  0.000E+00  1.04453E+03  1.804E+00  1.200E+01  6.000E-02  1.601E+00
   1   10    7     6     2    4.7746E+01  2.8782E-01   4.7459E+01  0.000E+00  0.000E+00  0.000E+00  1.03998E+03  1.797E+00  1.200E+01  6.000E-02  1.599E+00
   1   11    7     6     3    4.7459E+01  2.8743E-01   4.7171E+01  0.000E+00  0.000E+00  0.000E+00  1.03543E+03  1.790E+00  1.200E+01  6.000E-02  1.597E+00
   1   12    7     6     4    4.7171E+01  2.8704E-01   4.6884E+01  0.000E+00  0.000E+00  0.000E+00  1.03087E+03  1.784E+00  1.200E+01  6.000E-02  1.595E+00
   1   13    7     6     5    4.6884E+01  2.4894E-02   4.6859E+01  0.000E+00  0.000E+00  0.000E+00  1.02769E+03  1.780E+00  1.200E+01  2.400E-02  3.458E-01
   1   14    9     7     1    1.5000E+02  1.3731E+00   1.4863E+02  0.000E+00  0.000E+00  0.000E+00  1.03987E+03  2.288E+00  5.529E+01  5.593E-01  8.184E-01
   1   13    8     7     2    1.4863E+02  1.9691E+00   1.4666E+02  0.000E+00  0.000E+00  0.000E+00  1.03478E+03  2.279E+00  5.525E+01  6.147E-01  1.068E+00
   1   13    7     7     3    1.4666E+02  1.6953E+00   1.4496E+02  0.000E+00  0.000E+00  0.000E+00  1.02969E+03  2.269E+00  5.521E+01  5.584E-01  1.012E+00
   1   13    6     8     1    1.9182E+02  1.2312E+00   1.9059E+02  0.000E+00  0.000E+00  0.000E+00  1.02496E+03  3.085E+00  4.474E+01  4.559E-01  9.003E-01
   1   13    5     8     2    1.9059E+02  4.2636E-01   1.9016E+02  0.000E+00  0.000E+00  0.000E+00  1.01871E+03  3.080E+00  4.466E+01  4.551E-01  3.123E-01
   1   13    4     8     3    1.9016E+02 -1.6750E+00   1.9184E+02  0.000E+00  0.000E+00  0.000E+00  1.01246E+03  3.084E+00  4.472E+01  4.557E+00 -1.225E-01
   1   13    3     8     4    1.9184E+02 -3.2873E+00   1.9513E+02  0.000E+00  0.000E+00  0.000E+00  1.00622E+03  3.099E+00  4.494E+01  4.579E+00 -2.393E-01
   1   13    2     8     5    1.9513E+02 -2.4834E+00   1.9761E+02  0.000E+00  0.000E+00  0.000E+00  9.99991E+02  3.116E+00  4.519E+01  4.605E+00 -1.798E-01
   1   13    1     8     6    1.9761E+02 -1.9705E+00   1.9958E+02  0.000E+00  0.000E+00  0.000E+00  9.95004E+02  3.129E+00  4.538E+01  2.774E+00 -2.367E-01
   1    8    6     9     1    0.0000E+00  0.0000E+00   0.0000E+00  0.000E+00  0.000E+00  0.000E+00  1.07875E+03  0.000E+00  4.000E+00  0.000E+00  1.000E+00
   1    8    5     9     2    0.0000E+00  0.0000E+00   0.0000E+00  0.000E+00  0.000E+00  0.000E+00  1.07825E+03  0.000E+00  4.000E+00  0.000E+00  1.000E+00





UNSATURATED ZONE PACKAGE VOLUMETRIC BUDGET FOR  TIME STEP    30 STRESS PERIOD   43
  ------------------------------------------------------------------------------



     CUMULATIVE VOLUMES      L**3       RATES FOR THIS TIME STEP      L**3/T
     ------------------                 ------------------------

           IN:                                      IN:
           ---                                      ---
        INFILTRATION =  1376208068.7557          INFILTRATION =          23.3175

          OUT:                                     OUT:
          ----                                     ----
              UZF ET =  1375382503.7676                UZF ET =          23.3175
        UZF RECHARGE =       73224.0000          UZF RECHARGE =       0.0000E+00

            IN - OUT =      752340.9881              IN - OUT =       0.0000E+00

          STORAGE:                                 STORAGE:
          --------                                 --------
      STORAGE CHANGE =      752341.1376        STORAGE CHANGE =      -1.9089E-15

 PERCENT DISCREPANCY IS DIFFERENCE BETWEEN IN-OUT MINUS CHANGE IN STORAGE
 DIVIDED BY THE AVERAGE OF IN AND OUT TIMES 100

 PERCENT DISCREPANCY =           0.00     PERCENT DISCREPANCY =           0.00






1
  VOLUMETRIC BUDGET FOR AGRICULTURAL FIELDS AT  END OF TIME STEP   30, STRESS PERIOD  43
  ------------------------------------------------------------------------------

     CUMULATIVE VOLUMES      L**3       RATES FOR THIS TIME STEP      L**3/T
     ------------------                 ------------------------

           IN:                                      IN:
           ---                                      ---
               AG WELLS  =  1282518144.0000                 AG WELLS  =          22.4700
      DIVERSION SEGMENTS =           0.0000        DIVERSION SEGMENTS =           0.0000
       IRRIGATION PONDS  =           0.0000         IRRIGATION PONDS  =           0.0000
           GW IRRIGATION =           0.0000             GW IRRIGATION =           0.0000
           SW IRRIGATION =           0.0000             SW IRRIGATION =           0.0000
        SYSTEM LOSSES GW =           0.0000          SYSTEM LOSSES GW =           0.0000
        SYSTEM LOSSES SW =           0.0000          SYSTEM LOSSES SW =           0.0000

                TOTAL IN =  1282518144.0000                  TOTAL IN =          22.4700

          OUT:                                     OUT:
          ----                                     ----
               AG WELLS  =           0.0000                 AG WELLS  =           0.0000
      DIVERSION SEGMENTS =           0.0000        DIVERSION SEGMENTS =           0.0000
       IRRIGATION PONDS  =           0.0000         IRRIGATION PONDS  =           0.0000
           GW IRRIGATION =  1282518144.0000             GW IRRIGATION =          22.4700
           SW IRRIGATION =           0.0000             SW IRRIGATION =           0.0000
        SYSTEM LOSSES GW =           0.0000          SYSTEM LOSSES GW =           0.0000
        SYSTEM LOSSES SW =           0.0000          SYSTEM LOSSES SW =           0.0000

               TOTAL OUT =  1282518144.0000                 TOTAL OUT =          22.4700

                IN - OUT =           0.0000                  IN - OUT =           0.0000

     PERCENT DISCREPANCY =           0.00         PERCENT DISCREPANCY =           0.00



1
  VOLUMETRIC BUDGET FOR ENTIRE MODEL AT END OF TIME STEP   30, STRESS PERIOD  43
  ------------------------------------------------------------------------------

     CUMULATIVE VOLUMES      L**3       RATES FOR THIS TIME STEP      L**3/T
     ------------------                 ------------------------

           IN:                                      IN:
           ---                                      ---
             STORAGE     =  1764421120.0000               STORAGE     =          18.8512
       CONSTANT HEAD     =           0.0000         CONSTANT HEAD     =           0.0000
     HEAD DEP BOUNDS     =    31663248.0000       HEAD DEP BOUNDS     =           0.2883
      STREAM LEAKAGE     =  1372850944.0000        STREAM LEAKAGE     =          13.3345
        UZF RECHARGE     =       73223.9531          UZF RECHARGE     =           0.0000
               GW ET     =           0.0000                 GW ET     =           0.0000
     SURFACE LEAKAGE     =           0.0000       SURFACE LEAKAGE     =           0.0000
           AG WELLS      =           0.0000             AG WELLS      =           0.0000

                TOTAL IN =  3169008640.0000                  TOTAL IN =          32.4739

          OUT:                                     OUT:
          ----                                     ----
             STORAGE     =   727193728.0000               STORAGE     =           0.2946
       CONSTANT HEAD     =           0.0000         CONSTANT HEAD     =           0.0000
     HEAD DEP BOUNDS     =    32304104.0000       HEAD DEP BOUNDS     =           0.2932
      STREAM LEAKAGE     =  1118589056.0000        STREAM LEAKAGE     =           9.4162
        UZF RECHARGE     =           0.0000          UZF RECHARGE     =           0.0000
               GW ET     =     8413934.0000                 GW ET     =           0.0000
     SURFACE LEAKAGE     =           0.0000       SURFACE LEAKAGE     =           0.0000
           AG WELLS      =  1282518144.0000             AG WELLS      =          22.4700

               TOTAL OUT =  3169018880.0000                 TOTAL OUT =          32.4740

                IN - OUT =      -10240.0000                  IN - OUT =      -6.4850E-05

     PERCENT DISCREPANCY =          -0.00         PERCENT DISCREPANCY =          -0.00






         TIME SUMMARY AT END OF TIME STEP   30 IN STRESS PERIOD   43
                    SECONDS     MINUTES      HOURS       DAYS        YEARS
                    -----------------------------------------------------------
   TIME STEP LENGTH  87667.      1461.1      24.352      1.0147     2.77799E-03
 STRESS PERIOD TIME 2.63000E+06  43833.      730.56      30.440     8.33397E-02
         TOTAL TIME 1.10545E+08 1.84242E+06  30707.      1279.5      3.5030    
1
1
                            STRESS PERIOD NO.   44, LENGTH =   2630000.    
                            -----------------------------------------------

                              NUMBER OF TIME STEPS =    30

                               MULTIPLIER FOR DELT =     1.000

                            INITIAL TIME STEP SIZE =   87666.66    

 REUSING NON-PARAMETER GHB CELLS FROM LAST STRESS PERIOD

      2 GHB CELLS

 REUSING STREAM SEGMENT DATA FROM LAST STRESS PERIOD



            AREAL INFILTRATION RATE
 READING ON UNIT   19 WITH FORMAT: (FREE)              

            1           2           3           4           5           6           7           8           9          10
 ........................................................................................................................
   1   1.0000E-10  2.0000E-10   0.000       0.000       0.000       0.000       0.000       0.000       0.000       0.000    
   2   2.0000E-10  1.0000E-10  2.0000E-10   0.000       0.000      8.0000E-10  8.0000E-10  5.0000E-10   0.000       0.000    
   3    0.000      5.0000E-10  1.0000E-10  1.0000E-10  8.0000E-10  8.0000E-10  5.0000E-10  5.0000E-10   0.000       0.000    
   4   8.0000E-10  5.0000E-10  1.0000E-10  1.0000E-10  1.0000E-10  1.0000E-10  1.0000E-10  1.0000E-10  2.0000E-10   0.000    
   5   8.0000E-10  5.0000E-10  1.0000E-10  1.0000E-10  1.0000E-10  1.0000E-10  1.0000E-10  1.0000E-10  1.0000E-10  1.0000E-10
   6   8.0000E-10  5.0000E-10  5.0000E-10  2.0000E-10  2.0000E-10  1.0000E-10  1.0000E-10  1.0000E-10  1.0000E-10  5.0000E-10
   7   8.0000E-10  5.0000E-10  5.0000E-10  2.0000E-10  2.0000E-10  1.0000E-10  1.0000E-10  2.0000E-10  2.0000E-10   0.000    
   8    0.000      5.0000E-10  5.0000E-10  2.0000E-10  2.0000E-10  1.0000E-10  1.0000E-10  2.0000E-10  5.0000E-10   0.000    
   9    0.000      5.0000E-10  5.0000E-10  2.0000E-10  2.0000E-10  1.0000E-10  1.0000E-10  2.0000E-10  5.0000E-10   0.000    
  10    0.000      5.0000E-10  5.0000E-10  2.0000E-10  2.0000E-10  1.0000E-10  1.0000E-10  2.0000E-10  5.0000E-10  8.0000E-10
  11    0.000      1.0000E-10  1.0000E-10  1.0000E-10  1.0000E-10  1.0000E-10  1.0000E-10  2.0000E-10  5.0000E-10   0.000    
  12   1.0000E-10  1.0000E-10  1.0000E-10  1.0000E-10  1.0000E-10  1.0000E-10  1.0000E-10  1.0000E-10  2.0000E-10   0.000    
  13   1.0000E-10  1.0000E-10  2.0000E-10  2.0000E-10  2.0000E-10  2.0000E-10  2.0000E-10  1.0000E-10  1.0000E-10   0.000    
  14    0.000      2.0000E-10  5.0000E-10  5.0000E-10  5.0000E-10  5.0000E-10  5.0000E-10  2.0000E-10  1.0000E-10   0.000    
  15    0.000       0.000      8.0000E-10  8.0000E-10  8.0000E-10  8.0000E-10   0.000       0.000       0.000       0.000    

                  ET RATE =  4.000000E-07

 USING ET EXTINCTION DEPTH FROM PREVIOUS STRESS PERIOD. CURRENT PERIOD IS:      44

 USING EXTINCTION WATER CONTENT FROM PREVIOUS STRESS PERIOD. CURRENT PERIOD IS:      44

 USING AIR ENTRY PRESSURE FROM PREVIOUS STRESS PERIOD. CURRENT PERIOD IS:      44

 USING ROOT PRESSURE HEAD FROM PREVIOUS STRESS PERIOD. CURRENT PERIOD IS:      44

 USING ROOT ACTIVITY FROM PREVIOUS STRESS PERIOD. CURRENT PERIOD IS:      44

 PROCESSING AG STRESS PERIOD DATA

 READING AG STRESS PERIOD DATA

 READING IRRIGATION SEGMENT

 READING IRRIGATION WELL

 READING SUPPLEMENTAL WELL

 NO IRRPOND OR REUSING IRRPOND DATA FROM LAST STRESS PERIOD

 END PROCESSING AG STRESS PERIOD DATA OPTIONS
 
 SOLVING FOR HEAD 
                                                   Max.-Head-Change                         Max.-Flux-Residual
  Residual-Control   Outer-Iter.   Inner-Iter.     Column Row Layer    Maximum-Head-Change  Column Row Layer    Maximum-Flux-Residual          L2-NORM 
          0                 1           2             4    7     1      -0.1631169563E+00       4    7    1        -0.8529968406E+01      0.1992488992E+02
          0                 2           2             4    7     1       0.1586657895E-01       4    7    1         0.8529800240E+00      0.1992462160E+01
          0                 3           2             4    7     1      -0.1080457678E-02       4    7    1        -0.5970878659E-01      0.1394726570E+00
          0                 4           1             4    7     1       0.4299241053E-04       4    7    1         0.2442092038E-02      0.5704438038E-02

    ------------------------------------------------
       NWT REQUIRED            4 OUTER ITERATIONS 
       AND A TOTAL OF          7 INNER ITERATIONS.
    ------------------------------------------------

 NO OUTPUT CONTROL FOR STRESS PERIOD   44   TIME STEP    1
 
 SOLVING FOR HEAD 
                                                   Max.-Head-Change                         Max.-Flux-Residual
  Residual-Control   Outer-Iter.   Inner-Iter.     Column Row Layer    Maximum-Head-Change  Column Row Layer    Maximum-Flux-Residual          L2-NORM 
          0                 1           2             4    7     1      -0.1620161949E+00       4    7    1        -0.8475228075E+01      0.1961069441E+02
          0                 2           2             4    7     1       0.1575948892E-01       4    7    1         0.8475049100E+00      0.1961042238E+01
          0                 3           2             4    7     1      -0.1073165401E-02       4    7    1        -0.5932553867E-01      0.1372732651E+00
          0                 4           1             4    7     1       0.4270224305E-04       4    7    1         0.2426417121E-02      0.5614482769E-02

    ------------------------------------------------
       NWT REQUIRED            4 OUTER ITERATIONS 
       AND A TOTAL OF          7 INNER ITERATIONS.
    ------------------------------------------------

 NO OUTPUT CONTROL FOR STRESS PERIOD   44   TIME STEP    2
 
 SOLVING FOR HEAD 
                                                   Max.-Head-Change                         Max.-Flux-Residual
  Residual-Control   Outer-Iter.   Inner-Iter.     Column Row Layer    Maximum-Head-Change  Column Row Layer    Maximum-Flux-Residual          L2-NORM 
          0                 1           2             4    7     1      -0.1608728188E+00       4    7    1        -0.8418032364E+01      0.1931101870E+02
          0                 2           2             4    7     1       0.1564825560E-01       4    7    1         0.8417843875E+00      0.1931074420E+01
          0                 3           2             4    7     1      -0.1065590961E-02       4    7    1        -0.5892511092E-01      0.1351755190E+00
          0                 4           1             4    7     1       0.4240084877E-04       4    7    1         0.2410039569E-02      0.5528684591E-02

    ------------------------------------------------
       NWT REQUIRED            4 OUTER ITERATIONS 
       AND A TOTAL OF          7 INNER ITERATIONS.
    ------------------------------------------------

 NO OUTPUT CONTROL FOR STRESS PERIOD   44   TIME STEP    3
 
 SOLVING FOR HEAD 
                                                   Max.-Head-Change                         Max.-Flux-Residual
  Residual-Control   Outer-Iter.   Inner-Iter.     Column Row Layer    Maximum-Head-Change  Column Row Layer    Maximum-Flux-Residual          L2-NORM 
          0                 1           2             4    7     1      -0.1596912937E+00       4    7    1        -0.8358627134E+01      0.1902480517E+02
          0                 2           2             4    7     1       0.1553331320E-01       4    7    1         0.8358430333E+00      0.1902452933E+01
          0                 3           2             4    7     1      -0.1057763929E-02       4    7    1        -0.5850922381E-01      0.1331720159E+00
          0                 4           1             4    7     1       0.4208940329E-04       4    7    1         0.2393029724E-02      0.5446741183E-02

    ------------------------------------------------
       NWT REQUIRED            4 OUTER ITERATIONS 
       AND A TOTAL OF          7 INNER ITERATIONS.
    ------------------------------------------------

 NO OUTPUT CONTROL FOR STRESS PERIOD   44   TIME STEP    4
 
 SOLVING FOR HEAD 
                                                   Max.-Head-Change                         Max.-Flux-Residual
  Residual-Control   Outer-Iter.   Inner-Iter.     Column Row Layer    Maximum-Head-Change  Column Row Layer    Maximum-Flux-Residual          L2-NORM 
          0                 1           2             4    7     1      -0.1584754240E+00       4    7    1        -0.8297222074E+01      0.1875108069E+02
          0                 2           2             4    7     1       0.1541503167E-01       4    7    1         0.8297018076E+00      0.1875080446E+01
          0                 3           2             4    7     1      -0.1049709498E-02       4    7    1        -0.5807934463E-01      0.1312559426E+00
          0                 4           1             4    7     1       0.4176890912E-04       4    7    1         0.2375447615E-02      0.5368374494E-02

    ------------------------------------------------
       NWT REQUIRED            4 OUTER ITERATIONS 
       AND A TOTAL OF          7 INNER ITERATIONS.
    ------------------------------------------------

 NO OUTPUT CONTROL FOR STRESS PERIOD   44   TIME STEP    5
 
 SOLVING FOR HEAD 
                                                   Max.-Head-Change                         Max.-Flux-Residual
  Residual-Control   Outer-Iter.   Inner-Iter.     Column Row Layer    Maximum-Head-Change  Column Row Layer    Maximum-Flux-Residual          L2-NORM 
          0                 1           2             4    7     1      -0.1572294634E+00       4    7    1        -0.8234050886E+01      0.1849003230E+02
          0                 2           2             4    7     1       0.1529382464E-01       4    7    1         0.8233840720E+00      0.1848973692E+01
          0                 3           2             4    7     1      -0.1041455837E-02       4    7    1        -0.5763710877E-01      0.1294282952E+00
          0                 4           1             4    7     1       0.4144048829E-04       4    7    1         0.2357360115E-02      0.5293612631E-02

    ------------------------------------------------
       NWT REQUIRED            4 OUTER ITERATIONS 
       AND A TOTAL OF          7 INNER ITERATIONS.
    ------------------------------------------------

 NO OUTPUT CONTROL FOR STRESS PERIOD   44   TIME STEP    6
 
 SOLVING FOR HEAD 
                                                   Max.-Head-Change                         Max.-Flux-Residual
  Residual-Control   Outer-Iter.   Inner-Iter.     Column Row Layer    Maximum-Head-Change  Column Row Layer    Maximum-Flux-Residual          L2-NORM 
          0                 1           2             4    7     1      -0.1559567270E+00       4    7    1        -0.8169297716E+01      0.1823915439E+02
          0                 2           2             4    7     1       0.1517001447E-01       4    7    1         0.8169082334E+00      0.1823885486E+01
          0                 3           2             4    7     1      -0.1033024898E-02       4    7    1        -0.5718380481E-01      0.1276720747E+00
          0                 4           1             4    7     1       0.4110501222E-04       4    7    1         0.2338819917E-02      0.5221782667E-02

    ------------------------------------------------
       NWT REQUIRED            4 OUTER ITERATIONS 
       AND A TOTAL OF          7 INNER ITERATIONS.
    ------------------------------------------------

 NO OUTPUT CONTROL FOR STRESS PERIOD   44   TIME STEP    7
 
 SOLVING FOR HEAD 
                                                   Max.-Head-Change                         Max.-Flux-Residual
  Residual-Control   Outer-Iter.   Inner-Iter.     Column Row Layer    Maximum-Head-Change  Column Row Layer    Maximum-Flux-Residual          L2-NORM 
          0                 1           2             4    7     1      -0.1546609743E+00       4    7    1        -0.8103170862E+01      0.1799807554E+02
          0                 2           2             4    7     1       0.1504396675E-01       4    7    1         0.8102951132E+00      0.1799778099E+01
          0                 3           2             4    7     1      -0.1024441578E-02       4    7    1        -0.5672089032E-01      0.1259845784E+00
          0                 4           1             4    7     1       0.4076347434E-04       4    7    1         0.2319886689E-02      0.5152755536E-02

    ------------------------------------------------
       NWT REQUIRED            4 OUTER ITERATIONS 
       AND A TOTAL OF          7 INNER ITERATIONS.
    ------------------------------------------------

 NO OUTPUT CONTROL FOR STRESS PERIOD   44   TIME STEP    8
 
 SOLVING FOR HEAD 
                                                   Max.-Head-Change                         Max.-Flux-Residual
  Residual-Control   Outer-Iter.   Inner-Iter.     Column Row Layer    Maximum-Head-Change  Column Row Layer    Maximum-Flux-Residual          L2-NORM 
          0                 1           2             4    7     1      -0.1533453281E+00       4    7    1        -0.8035843426E+01      0.1776645815E+02
          0                 2           2             4    7     1       0.1491598511E-01       4    7    1         0.8035620149E+00      0.1776616860E+01
          0                 3           2             4    7     1      -0.1015726552E-02       4    7    1        -0.5624957658E-01      0.1243633118E+00
          0                 4           1             4    7     1       0.4041669504E-04       4    7    1         0.2300609908E-02      0.5086456905E-02

    ------------------------------------------------
       NWT REQUIRED            4 OUTER ITERATIONS 
       AND A TOTAL OF          7 INNER ITERATIONS.
    ------------------------------------------------

 NO OUTPUT CONTROL FOR STRESS PERIOD   44   TIME STEP    9
 
 SOLVING FOR HEAD 
                                                   Max.-Head-Change                         Max.-Flux-Residual
  Residual-Control   Outer-Iter.   Inner-Iter.     Column Row Layer    Maximum-Head-Change  Column Row Layer    Maximum-Flux-Residual          L2-NORM 
          0                 1           2             4    7     1      -0.1520127076E+00       4    7    1        -0.7967477323E+01      0.1754369630E+02
          0                 2           2             4    7     1       0.1478635342E-01       4    7    1         0.7967251235E+00      0.1754341175E+01
          0                 3           2             4    7     1      -0.1006899155E-02       4    7    1        -0.5577099665E-01      0.1228040344E+00
          0                 4           1             4    7     1       0.4006544441E-04       4    7    1         0.2281035954E-02      0.5022680692E-02

    ------------------------------------------------
       NWT REQUIRED            4 OUTER ITERATIONS 
       AND A TOTAL OF          7 INNER ITERATIONS.
    ------------------------------------------------

 NO OUTPUT CONTROL FOR STRESS PERIOD   44   TIME STEP   10
 
 SOLVING FOR HEAD 
                                                   Max.-Head-Change                         Max.-Flux-Residual
  Residual-Control   Outer-Iter.   Inner-Iter.     Column Row Layer    Maximum-Head-Change  Column Row Layer    Maximum-Flux-Residual          L2-NORM 
          0                 1           2             4    7     1      -0.1506659577E+00       4    7    1        -0.7898231202E+01      0.1732922958E+02
          0                 2           2             4    7     1       0.1465534832E-01       4    7    1         0.7898002974E+00      0.1732895007E+01
          0                 3           2             4    7     1      -0.9979782231E-03       4    7    1        -0.5528626064E-01      0.1213028154E+00
          0                 4           1             4    7     1       0.3971047194E-04       4    7    1         0.2261210210E-02      0.4961285401E-02

    ------------------------------------------------
       NWT REQUIRED            4 OUTER ITERATIONS 
       AND A TOTAL OF          7 INNER ITERATIONS.
    ------------------------------------------------

 NO OUTPUT CONTROL FOR STRESS PERIOD   44   TIME STEP   11
 
 SOLVING FOR HEAD 
                                                   Max.-Head-Change                         Max.-Flux-Residual
  Residual-Control   Outer-Iter.   Inner-Iter.     Column Row Layer    Maximum-Head-Change  Column Row Layer    Maximum-Flux-Residual          L2-NORM 
          0                 1           2             4    7     1      -0.1493077262E+00       4    7    1        -0.7828252572E+01      0.1712255424E+02
          0                 2           2             4    7     1       0.1452322727E-01       4    7    1         0.7828022817E+00      0.1712227993E+01
          0                 3           2             4    7     1      -0.9889812906E-03       4    7    1        -0.5479640076E-01      0.1198562968E+00
          0                 4           1             4    7     1       0.3935247542E-04       4    7    1         0.2241174904E-02      0.4902689016E-02

    ------------------------------------------------
       NWT REQUIRED            4 OUTER ITERATIONS 
       AND A TOTAL OF          7 INNER ITERATIONS.
    ------------------------------------------------

 NO OUTPUT CONTROL FOR STRESS PERIOD   44   TIME STEP   12
 
 SOLVING FOR HEAD 
                                                   Max.-Head-Change                         Max.-Flux-Residual
  Residual-Control   Outer-Iter.   Inner-Iter.     Column Row Layer    Maximum-Head-Change  Column Row Layer    Maximum-Flux-Residual          L2-NORM 
          0                 1           2             4    7     1      -0.1479404767E+00       4    7    1        -0.7757678722E+01      0.1692320575E+02
          0                 2           2             4    7     1       0.1439022985E-01       4    7    1         0.7757447997E+00      0.1692293650E+01
          0                 3           2             4    7     1      -0.9799246723E-03       4    7    1        -0.5430237773E-01      0.1184607482E+00
          0                 4           1             4    7     1       0.3899210427E-04       4    7    1         0.2220969339E-02      0.4845044586E-02

    ------------------------------------------------
       NWT REQUIRED            4 OUTER ITERATIONS 
       AND A TOTAL OF          7 INNER ITERATIONS.
    ------------------------------------------------

 NO OUTPUT CONTROL FOR STRESS PERIOD   44   TIME STEP   13
 
 SOLVING FOR HEAD 
                                                   Max.-Head-Change                         Max.-Flux-Residual
  Residual-Control   Outer-Iter.   Inner-Iter.     Column Row Layer    Maximum-Head-Change  Column Row Layer    Maximum-Flux-Residual          L2-NORM 
          0                 1           2             4    7     1      -0.1465664995E+00       4    7    1        -0.7686637393E+01      0.1673077172E+02
          0                 2           2             4    7     1       0.1425657874E-01       4    7    1         0.7686406206E+00      0.1673050762E+01
          0                 3           2             4    7     1      -0.9708235330E-03       4    7    1        -0.5380508542E-01      0.1171137581E+00
          0                 4           1             4    7     1       0.3862996142E-04       4    7    1         0.2200630039E-02      0.4789952074E-02

    ------------------------------------------------
       NWT REQUIRED            4 OUTER ITERATIONS 
       AND A TOTAL OF          7 INNER ITERATIONS.
    ------------------------------------------------

 NO OUTPUT CONTROL FOR STRESS PERIOD   44   TIME STEP   14
 
 SOLVING FOR HEAD 
                                                   Max.-Head-Change                         Max.-Flux-Residual
  Residual-Control   Outer-Iter.   Inner-Iter.     Column Row Layer    Maximum-Head-Change  Column Row Layer    Maximum-Flux-Residual          L2-NORM 
          0                 1           2             4    7     1      -0.1451877792E+00       4    7    1        -0.7615240074E+01      0.1654484629E+02
          0                 2           2             4    7     1       0.1412246643E-01       4    7    1         0.7615008885E+00      0.1654438300E+01
          0                 3           2             4    7     1      -0.9616909808E-03       4    7    1        -0.5330530395E-01      0.1158108902E+00
          0                 4           1             4    7     1       0.3826656864E-04       4    7    1         0.2180188967E-02      0.4736667924E-02

    ------------------------------------------------
       NWT REQUIRED            4 OUTER ITERATIONS 
       AND A TOTAL OF          7 INNER ITERATIONS.
    ------------------------------------------------

 NO OUTPUT CONTROL FOR STRESS PERIOD   44   TIME STEP   15
 
 SOLVING FOR HEAD 
                                                   Max.-Head-Change                         Max.-Flux-Residual
  Residual-Control   Outer-Iter.   Inner-Iter.     Column Row Layer    Maximum-Head-Change  Column Row Layer    Maximum-Flux-Residual          L2-NORM 
          0                 1           2             4    7     1      -0.1438062866E+00       4    7    1        -0.7543596969E+01      0.1636507958E+02
          0                 2           2             4    7     1       0.1398808610E-01       4    7    1         0.7543366196E+00      0.1636482590E+01
          0                 3           2             4    7     1      -0.9525401713E-03       4    7    1        -0.5280380453E-01      0.1145540115E+00
          0                 4           1             4    7     1       0.3790244893E-04       4    7    1         0.2159677584E-02      0.4685280129E-02

    ------------------------------------------------
       NWT REQUIRED            4 OUTER ITERATIONS 
       AND A TOTAL OF          7 INNER ITERATIONS.
    ------------------------------------------------

 NO OUTPUT CONTROL FOR STRESS PERIOD   44   TIME STEP   16
 
 SOLVING FOR HEAD 
                                                   Max.-Head-Change                         Max.-Flux-Residual
  Residual-Control   Outer-Iter.   Inner-Iter.     Column Row Layer    Maximum-Head-Change  Column Row Layer    Maximum-Flux-Residual          L2-NORM 
          0                 1           2             4    7     1      -0.1424239680E+00       4    7    1        -0.7471817429E+01      0.1619119189E+02
          0                 2           2             4    7     1       0.1385362545E-01       4    7    1         0.7471587444E+00      0.1619094347E+01
          0                 3           2             4    7     1      -0.9433838875E-03       4    7    1        -0.5230135230E-01      0.1133368233E+00
          0                 4           1             4    7     1       0.3753811233E-04       4    7    1         0.2139127287E-02      0.4635478670E-02

    ------------------------------------------------
       NWT REQUIRED            4 OUTER ITERATIONS 
       AND A TOTAL OF          7 INNER ITERATIONS.
    ------------------------------------------------

 NO OUTPUT CONTROL FOR STRESS PERIOD   44   TIME STEP   17
 
 SOLVING FOR HEAD 
                                                   Max.-Head-Change                         Max.-Flux-Residual
  Residual-Control   Outer-Iter.   Inner-Iter.     Column Row Layer    Maximum-Head-Change  Column Row Layer    Maximum-Flux-Residual          L2-NORM 
          0                 1           2             4    7     1      -0.1410423620E+00       4    7    1        -0.7399987945E+01      0.1602281675E+02
          0                 2           2             4    7     1       0.1371923461E-01       4    7    1         0.7399759088E+00      0.1602257313E+01
          0                 3           2             4    7     1      -0.9342323525E-03       4    7    1        -0.5179855252E-01      0.1121582278E+00
          0                 4           1             4    7     1       0.3717396454E-04       4    7    1         0.2118562758E-02      0.4587270708E-02

    ------------------------------------------------
       NWT REQUIRED            4 OUTER ITERATIONS 
       AND A TOTAL OF          7 INNER ITERATIONS.
    ------------------------------------------------

 NO OUTPUT CONTROL FOR STRESS PERIOD   44   TIME STEP   18
 
 SOLVING FOR HEAD 
                                                   Max.-Head-Change                         Max.-Flux-Residual
  Residual-Control   Outer-Iter.   Inner-Iter.     Column Row Layer    Maximum-Head-Change  Column Row Layer    Maximum-Flux-Residual          L2-NORM 
          0                 1           2             4    7     1      -0.1396631437E+00       4    7    1        -0.7328202772E+01      0.1585967670E+02
          0                 2           2             4    7     1       0.1358507647E-01       4    7    1         0.7327975345E+00      0.1585943811E+01
          0                 3           2             4    7     1      -0.9250966589E-03       4    7    1        -0.5129606475E-01      0.1110162880E+00
          0                 4           1             4    7     1       0.3681044649E-04       4    7    1         0.2098010964E-02      0.4540565276E-02

    ------------------------------------------------
       NWT REQUIRED            4 OUTER ITERATIONS 
       AND A TOTAL OF          7 INNER ITERATIONS.
    ------------------------------------------------

 NO OUTPUT CONTROL FOR STRESS PERIOD   44   TIME STEP   19
 
 SOLVING FOR HEAD 
                                                   Max.-Head-Change                         Max.-Flux-Residual
  Residual-Control   Outer-Iter.   Inner-Iter.     Column Row Layer    Maximum-Head-Change  Column Row Layer    Maximum-Flux-Residual          L2-NORM 
          0                 1           2             4    7     1      -0.1382875846E+00       4    7    1        -0.7256534262E+01      0.1570149956E+02
          0                 2           2             4    7     1       0.1345127467E-01       4    7    1         0.7256308534E+00      0.1570133394E+01
          0                 3           2             4    7     1      -0.9159852273E-03       4    7    1        -0.5079439524E-01      0.1099095550E+00
          0                 4           1             4    7     1       0.3644789436E-04       4    7    1         0.2077492671E-02      0.4495303115E-02

    ------------------------------------------------
       NWT REQUIRED            4 OUTER ITERATIONS 
       AND A TOTAL OF          7 INNER ITERATIONS.
    ------------------------------------------------

 NO OUTPUT CONTROL FOR STRESS PERIOD   44   TIME STEP   20
 
 SOLVING FOR HEAD 
                                                   Max.-Head-Change                         Max.-Flux-Residual
  Residual-Control   Outer-Iter.   Inner-Iter.     Column Row Layer    Maximum-Head-Change  Column Row Layer    Maximum-Flux-Residual          L2-NORM 
          0                 1           2             4    7     1      -0.1369171178E+00       4    7    1        -0.7185062842E+01      0.1554804485E+02
          0                 2           2             4    7     1       0.1331796856E-01       4    7    1         0.7184839053E+00      0.1554781696E+01
          0                 3           2             4    7     1      -0.9069075467E-03       4    7    1        -0.5029410683E-01      0.1088349403E+00
          0                 4           1             4    7     1       0.3608668532E-04       4    7    1         0.2057030871E-02      0.4451351798E-02

    ------------------------------------------------
       NWT REQUIRED            4 OUTER ITERATIONS 
       AND A TOTAL OF          7 INNER ITERATIONS.
    ------------------------------------------------

 NO OUTPUT CONTROL FOR STRESS PERIOD   44   TIME STEP   21
 
 SOLVING FOR HEAD 
                                                   Max.-Head-Change                         Max.-Flux-Residual
  Residual-Control   Outer-Iter.   Inner-Iter.     Column Row Layer    Maximum-Head-Change  Column Row Layer    Maximum-Flux-Residual          L2-NORM 
          0                 1           2             4    7     1      -0.1355527855E+00       4    7    1        -0.7113848322E+01      0.1539904137E+02
          0                 2           2             4    7     1       0.1318525950E-01       4    7    1         0.7113626686E+00      0.1539895512E+01
          0                 3           2             4    7     1      -0.8978705194E-03       4    7    1        -0.4979561800E-01      0.1077929055E+00
          0                 4           1             4    7     1       0.3572709347E-04       4    7    1         0.2036642637E-02      0.4408733315E-02

    ------------------------------------------------
       NWT REQUIRED            4 OUTER ITERATIONS 
       AND A TOTAL OF          7 INNER ITERATIONS.
    ------------------------------------------------

 NO OUTPUT CONTROL FOR STRESS PERIOD   44   TIME STEP   22
 
 SOLVING FOR HEAD 
                                                   Max.-Head-Change                         Max.-Flux-Residual
  Residual-Control   Outer-Iter.   Inner-Iter.     Column Row Layer    Maximum-Head-Change  Column Row Layer    Maximum-Flux-Residual          L2-NORM 
          0                 1           2             4    7     1      -0.1341958039E+00       4    7    1        -0.7042959231E+01      0.1525430809E+02
          0                 2           2             4    7     1       0.1305326570E-01       4    7    1         0.7042739935E+00      0.1525409034E+01
          0                 3           2             4    7     1      -0.8888821972E-03       4    7    1        -0.4929940833E-01      0.1067788518E+00
          0                 4           1             4    7     1       0.3536944002E-04       4    7    1         0.2016347650E-02      0.4367258587E-02

    ------------------------------------------------
       NWT REQUIRED            4 OUTER ITERATIONS 
       AND A TOTAL OF          7 INNER ITERATIONS.
    ------------------------------------------------

 NO OUTPUT CONTROL FOR STRESS PERIOD   44   TIME STEP   23
 
 SOLVING FOR HEAD 
                                                   Max.-Head-Change                         Max.-Flux-Residual
  Residual-Control   Outer-Iter.   Inner-Iter.     Column Row Layer    Maximum-Head-Change  Column Row Layer    Maximum-Flux-Residual          L2-NORM 
          0                 1           2             4    7     1      -0.1328471475E+00       4    7    1        -0.6972451388E+01      0.1511361353E+02
          0                 2           2             4    7     1       0.1292208197E-01       4    7    1         0.6972234595E+00      0.1511340041E+01
          0                 3           2             4    7     1      -0.8799490343E-03       4    7    1        -0.4880586836E-01      0.1057940181E+00
          0                 4           1             4    7     1       0.3501398114E-04       4    7    1         0.1996161855E-02      0.4326978032E-02

    ------------------------------------------------
       NWT REQUIRED            4 OUTER ITERATIONS 
       AND A TOTAL OF          7 INNER ITERATIONS.
    ------------------------------------------------

 NO OUTPUT CONTROL FOR STRESS PERIOD   44   TIME STEP   24
 
 SOLVING FOR HEAD 
                                                   Max.-Head-Change                         Max.-Flux-Residual
  Residual-Control   Outer-Iter.   Inner-Iter.     Column Row Layer    Maximum-Head-Change  Column Row Layer    Maximum-Flux-Residual          L2-NORM 
          0                 1           2             4    7     1      -0.1315077019E+00       4    7    1        -0.6902375307E+01      0.1497681806E+02
          0                 2           2             4    7     1       0.1279179441E-01       4    7    1         0.6902161160E+00      0.1497660950E+01
          0                 3           2             4    7     1      -0.8710768955E-03       4    7    1        -0.4831535159E-01      0.1048364817E+00
          0                 4           1             4    7     1       0.3466095076E-04       4    7    1         0.1976099692E-02      0.4287814950E-02

    ------------------------------------------------
       NWT REQUIRED            4 OUTER ITERATIONS 
       AND A TOTAL OF          7 INNER ITERATIONS.
    ------------------------------------------------

 NO OUTPUT CONTROL FOR STRESS PERIOD   44   TIME STEP   25
 
 SOLVING FOR HEAD 
                                                   Max.-Head-Change                         Max.-Flux-Residual
  Residual-Control   Outer-Iter.   Inner-Iter.     Column Row Layer    Maximum-Head-Change  Column Row Layer    Maximum-Flux-Residual          L2-NORM 
          0                 1           2             4    7     1      -0.1301782617E+00       4    7    1        -0.6832776919E+01      0.1484373953E+02
          0                 2           2             4    7     1       0.1266248028E-01       4    7    1         0.6832565541E+00      0.1484353548E+01
          0                 3           2             4    7     1      -0.8622710422E-03       4    7    1        -0.4782817944E-01      0.1039049605E+00
          0                 4           1             4    7     1       0.3431055783E-04       4    7    1         0.1956174343E-02      0.4249715711E-02

    ------------------------------------------------
       NWT REQUIRED            4 OUTER ITERATIONS 
       AND A TOTAL OF          7 INNER ITERATIONS.
    ------------------------------------------------

 NO OUTPUT CONTROL FOR STRESS PERIOD   44   TIME STEP   26
 
 SOLVING FOR HEAD 
                                                   Max.-Head-Change                         Max.-Flux-Residual
  Residual-Control   Outer-Iter.   Inner-Iter.     Column Row Layer    Maximum-Head-Change  Column Row Layer    Maximum-Flux-Residual          L2-NORM 
          0                 1           2             4    7     1      -0.1288595480E+00       4    7    1        -0.6763697416E+01      0.1471422801E+02
          0                 2           2             4    7     1       0.1253420969E-01       4    7    1         0.6763488912E+00      0.1471402834E+01
          0                 3           2             4    7     1      -0.8535362489E-03       4    7    1        -0.4734464011E-01      0.1029984127E+00
          0                 4           1             4    7     1       0.3396299233E-04       4    7    1         0.1936397576E-02      0.4212641881E-02

    ------------------------------------------------
       NWT REQUIRED            4 OUTER ITERATIONS 
       AND A TOTAL OF          7 INNER ITERATIONS.
    ------------------------------------------------

 NO OUTPUT CONTROL FOR STRESS PERIOD   44   TIME STEP   27
 
 SOLVING FOR HEAD 
                                                   Max.-Head-Change                         Max.-Flux-Residual
  Residual-Control   Outer-Iter.   Inner-Iter.     Column Row Layer    Maximum-Head-Change  Column Row Layer    Maximum-Flux-Residual          L2-NORM 
          0                 1           2             4    7     1      -0.1275522034E+00       4    7    1        -0.6695174189E+01      0.1458813867E+02
          0                 2           2             4    7     1       0.1240704515E-01       4    7    1         0.6694968648E+00      0.1458794321E+01
          0                 3           2             4    7     1      -0.8448767711E-03       4    7    1        -0.4686499523E-01      0.1021158118E+00
          0                 4           1             4    7     1       0.3361842359E-04       4    7    1         0.1916780072E-02      0.4176541259E-02

    ------------------------------------------------
       NWT REQUIRED            4 OUTER ITERATIONS 
       AND A TOTAL OF          7 INNER ITERATIONS.
    ------------------------------------------------

 NO OUTPUT CONTROL FOR STRESS PERIOD   44   TIME STEP   28
 
 SOLVING FOR HEAD 
                                                   Max.-Head-Change                         Max.-Flux-Residual
  Residual-Control   Outer-Iter.   Inner-Iter.     Column Row Layer    Maximum-Head-Change  Column Row Layer    Maximum-Flux-Residual          L2-NORM 
          0                 1           2             4    7     1      -0.1262570232E+00       4    7    1        -0.6627247790E+01      0.1448623374E+02
          0                 2           2             4    7     1       0.1228106397E-01       4    7    1         0.6627045295E+00      0.1448553988E+01
          0                 3           2             4    7     1      -0.8362978758E-03       4    7    1        -0.4638952868E-01      0.1013944435E+00
          0                 4           1             4    7     1       0.3327706231E-04       4    7    1         0.1897333492E-02      0.4146770765E-02

    ------------------------------------------------
       NWT REQUIRED            4 OUTER ITERATIONS 
       AND A TOTAL OF          7 INNER ITERATIONS.
    ------------------------------------------------

 NO OUTPUT CONTROL FOR STRESS PERIOD   44   TIME STEP   29
 
 SOLVING FOR HEAD 
                                                   Max.-Head-Change                         Max.-Flux-Residual
  Residual-Control   Outer-Iter.   Inner-Iter.     Column Row Layer    Maximum-Head-Change  Column Row Layer    Maximum-Flux-Residual          L2-NORM 
          0                 1           2             4    7     1      -0.1249743699E+00       4    7    1        -0.6559944980E+01      0.1436568779E+02
          0                 2           2             4    7     1       0.1215618945E-01       4    7    1         0.6559745591E+00      0.1436489204E+01
          0                 3           2             4    7     1      -0.8277943385E-03       4    7    1        -0.4591842774E-01      0.1005504574E+00
          0                 4           1             4    7     1       0.3293869838E-04       4    7    1         0.1878065435E-02      0.4112242367E-02

    ------------------------------------------------
       NWT REQUIRED            4 OUTER ITERATIONS 
       AND A TOTAL OF          7 INNER ITERATIONS.
    ------------------------------------------------

 NO OUTPUT CONTROL FOR STRESS PERIOD   44   TIME STEP   30



 STREAM LISTING     PERIOD     44   STEP       30

 LAYER ROW COL. STREAM  RCH.  FLOW INTO     FLOW TO   FLOW OUT OF   OVRLND.     DIRECT     STREAM       STREAM     STREAM     STREAM   STREAMBED  STREAMBED
                SEG.NO.  NO.  STRM. RCH.    AQUIFER    STRM. RCH.    RUNOFF     PRECIP       ET          HEAD       DEPTH      WIDTH   CONDCTNC.   GRADIENT

   1    1    1     1     1    2.7749E+01  2.5751E-01   2.7492E+01  0.000E+00  0.000E+00  0.000E+00  1.09427E+03  1.218E+00  1.357E+01  6.105E-02  1.406E+00
   1    2    2     1     2    2.7492E+01  3.9832E-01   2.7093E+01  0.000E+00  0.000E+00  0.000E+00  1.08927E+03  1.213E+00  1.351E+01  9.454E-02  1.404E+00
   1    3    3     1     3    2.7093E+01  3.3923E-01   2.6754E+01  0.000E+00  0.000E+00  0.000E+00  1.08363E+03  1.208E+00  1.344E+01  8.062E-02  1.403E+00
   1    3    4     1     4    2.6754E+01  3.1200E-01   2.6442E+01  0.000E+00  0.000E+00  0.000E+00  1.07861E+03  1.203E+00  1.337E+01  7.422E-02  1.401E+00
   1    4    5     2     1    2.4442E+01  3.2655E-01   2.4116E+01  0.000E+00  0.000E+00  0.000E+00  1.07312E+03  1.187E+00  1.200E+01  7.800E-02  1.396E+00
   1    5    6     2     2    2.4116E+01  2.5068E-01   2.3865E+01  0.000E+00  0.000E+00  0.000E+00  1.06769E+03  1.178E+00  1.200E+01  6.000E-02  1.393E+00
   1    6    6     2     3    2.3865E+01  2.5024E-01   2.3615E+01  0.000E+00  0.000E+00  0.000E+00  1.06296E+03  1.171E+00  1.200E+01  6.000E-02  1.390E+00
   1    7    6     2     4    2.3615E+01  2.4979E-01   2.3365E+01  0.000E+00  0.000E+00  0.000E+00  1.05824E+03  1.163E+00  1.200E+01  6.000E-02  1.388E+00
   1    8    6     2     5    2.3365E+01  2.4935E-01   2.3115E+01  0.000E+00  0.000E+00  0.000E+00  1.05351E+03  1.156E+00  1.200E+01  6.000E-02  1.385E+00
   1    3    5     3     1    2.0000E+00  2.8252E-01   1.7175E+00  0.000E+00  0.000E+00  0.000E+00  1.07555E+03  1.909E+00  9.636E+00  7.227E-02  1.955E+00
   1    3    6     3     2    1.7175E+00  2.4905E-01   1.4684E+00  0.000E+00  0.000E+00  0.000E+00  1.07264E+03  1.727E+00  8.909E+00  6.682E-02  1.864E+00
   1    3    7     3     3    1.4684E+00  1.9718E-01   1.2712E+00  0.000E+00  0.000E+00  0.000E+00  1.06987E+03  1.555E+00  8.218E+00  5.547E-02  1.777E+00
   1    4    8     3     4    1.2712E+00  2.2567E-01   1.0456E+00  0.000E+00  0.000E+00  0.000E+00  1.06682E+03  1.364E+00  7.455E+00  6.709E-02  1.682E+00
   1    5    8     3     5    1.0456E+00  1.5790E-01   8.8768E-01  0.000E+00  0.000E+00  0.000E+00  1.06362E+03  1.164E+00  6.655E+00  4.991E-02  1.582E+00
   1    6    8     3     6    8.8768E-01  5.5980E-02   8.3170E-01  0.000E+00  0.000E+00  0.000E+00  1.06158E+03  1.036E+00  6.145E+00  1.844E-02  1.518E+00
   1    5   10     4     1    1.0000E+01  9.0919E-02   9.9091E+00  0.000E+00  0.000E+00  0.000E+00  1.07836E+03  6.368E-01  1.000E+01  2.500E-02  1.212E+00
   1    5    9     4     2    9.9091E+00  1.8158E-01   9.7275E+00  0.000E+00  0.000E+00  0.000E+00  1.07154E+03  6.315E-01  1.000E+01  5.000E-02  1.211E+00
   1    6    8     4     3    9.7275E+00  1.2689E-01   9.6006E+00  0.000E+00  0.000E+00  0.000E+00  1.06381E+03  6.256E-01  1.000E+01  3.500E-02  1.209E+00
   1    6    8     5     1    1.0432E+01  2.2686E-01   1.0205E+01  0.000E+00  0.000E+00  0.000E+00  1.05868E+03  6.790E-01  1.542E+01  6.166E-02  1.226E+00
   1    7    7     5     2    1.0205E+01  2.7894E-01   9.9265E+00  0.000E+00  0.000E+00  0.000E+00  1.05417E+03  6.732E-01  1.519E+01  7.594E-02  1.224E+00
   1    8    7     5     3    9.9265E+00  1.9221E-01   9.7343E+00  0.000E+00  0.000E+00  0.000E+00  1.04992E+03  6.676E-01  1.497E+01  5.241E-02  1.223E+00
   1    8    6     5     4    9.7343E+00  1.3577E-01   9.5985E+00  0.000E+00  0.000E+00  0.000E+00  1.04691E+03  6.637E-01  1.482E+01  3.706E-02  1.221E+00
   1    9    6     6     1    3.2714E+01  2.6588E-01   3.2448E+01  0.000E+00  0.000E+00  0.000E+00  1.04416E+03  1.431E+00  1.200E+01  6.000E-02  1.477E+00
   1   10    7     6     2    3.2448E+01  2.6546E-01   3.2183E+01  0.000E+00  0.000E+00  0.000E+00  1.03961E+03  1.424E+00  1.200E+01  6.000E-02  1.475E+00
   1   11    7     6     3    3.2183E+01  2.6504E-01   3.1918E+01  0.000E+00  0.000E+00  0.000E+00  1.03505E+03  1.417E+00  1.200E+01  6.000E-02  1.472E+00
   1   12    7     6     4    3.1918E+01  2.6462E-01   3.1653E+01  0.000E+00  0.000E+00  0.000E+00  1.03050E+03  1.410E+00  1.200E+01  6.000E-02  1.470E+00
   1   13    7     6     5    3.1653E+01  1.6143E-02   3.1637E+01  0.000E+00  0.000E+00  0.000E+00  1.02732E+03  1.407E+00  1.200E+01  2.400E-02  2.242E-01
   1   14    9     7     1    1.5000E+02  1.3749E+00   1.4863E+02  0.000E+00  0.000E+00  0.000E+00  1.03987E+03  2.288E+00  5.529E+01  5.593E-01  8.194E-01
   1   13    8     7     2    1.4863E+02  1.9730E+00   1.4665E+02  0.000E+00  0.000E+00  0.000E+00  1.03478E+03  2.279E+00  5.525E+01  6.147E-01  1.070E+00
   1   13    7     7     3    1.4665E+02  1.7004E+00   1.4495E+02  0.000E+00  0.000E+00  0.000E+00  1.02969E+03  2.269E+00  5.521E+01  5.584E-01  1.015E+00
   1   13    6     8     1    1.7659E+02  1.1587E+00   1.7543E+02  0.000E+00  0.000E+00  0.000E+00  1.02487E+03  2.991E+00  4.337E+01  4.419E-01  8.739E-01
   1   13    5     8     2    1.7543E+02  3.7737E-01   1.7505E+02  0.000E+00  0.000E+00  0.000E+00  1.01861E+03  2.986E+00  4.330E+01  4.412E-01  2.851E-01
   1   13    4     8     3    1.7505E+02 -1.9397E+00   1.7699E+02  0.000E+00  0.000E+00  0.000E+00  1.01237E+03  2.991E+00  4.337E+01  4.419E+00 -1.463E-01
   1   13    3     8     4    1.7699E+02 -3.5053E+00   1.8050E+02  0.000E+00  0.000E+00  0.000E+00  1.00613E+03  3.008E+00  4.362E+01  4.445E+00 -2.629E-01
   1   13    2     8     5    1.8050E+02 -2.7103E+00   1.8321E+02  0.000E+00  0.000E+00  0.000E+00  9.99903E+02  3.028E+00  4.390E+01  4.474E+00 -2.019E-01
   1   13    1     8     6    1.8321E+02 -2.1000E+00   1.8531E+02  0.000E+00  0.000E+00  0.000E+00  9.94918E+02  3.043E+00  4.412E+01  2.698E+00 -2.595E-01
   1    8    6     9     1    0.0000E+00  0.0000E+00   0.0000E+00  0.000E+00  0.000E+00  0.000E+00  1.07875E+03  0.000E+00  4.000E+00  0.000E+00  1.000E+00
   1    8    5     9     2    0.0000E+00  0.0000E+00   0.0000E+00  0.000E+00  0.000E+00  0.000E+00  1.07825E+03  0.000E+00  4.000E+00  0.000E+00  1.000E+00





UNSATURATED ZONE PACKAGE VOLUMETRIC BUDGET FOR  TIME STEP    30 STRESS PERIOD   44
  ------------------------------------------------------------------------------



     CUMULATIVE VOLUMES      L**3       RATES FOR THIS TIME STEP      L**3/T
     ------------------                 ------------------------

           IN:                                      IN:
           ---                                      ---
        INFILTRATION =  1536158086.1321          INFILTRATION =          60.8175

          OUT:                                     OUT:
          ----                                     ----
              UZF ET =  1535332521.1440                UZF ET =          60.8175
        UZF RECHARGE =       73224.0000          UZF RECHARGE =       0.0000E+00

            IN - OUT =      752340.9881              IN - OUT =       0.0000E+00

          STORAGE:                                 STORAGE:
          --------                                 --------
      STORAGE CHANGE =      752341.1376        STORAGE CHANGE =      -3.3198E-16

 PERCENT DISCREPANCY IS DIFFERENCE BETWEEN IN-OUT MINUS CHANGE IN STORAGE
 DIVIDED BY THE AVERAGE OF IN AND OUT TIMES 100

 PERCENT DISCREPANCY =           0.00     PERCENT DISCREPANCY =           0.00






1
  VOLUMETRIC BUDGET FOR AGRICULTURAL FIELDS AT  END OF TIME STEP   30, STRESS PERIOD  44
  ------------------------------------------------------------------------------

     CUMULATIVE VOLUMES      L**3       RATES FOR THIS TIME STEP      L**3/T
     ------------------                 ------------------------

           IN:                                      IN:
           ---                                      ---
               AG WELLS  =  1440238464.0000                 AG WELLS  =          59.9700
      DIVERSION SEGMENTS =           0.0000        DIVERSION SEGMENTS =           0.0000
       IRRIGATION PONDS  =           0.0000         IRRIGATION PONDS  =           0.0000
           GW IRRIGATION =           0.0000             GW IRRIGATION =           0.0000
           SW IRRIGATION =           0.0000             SW IRRIGATION =           0.0000
        SYSTEM LOSSES GW =           0.0000          SYSTEM LOSSES GW =           0.0000
        SYSTEM LOSSES SW =           0.0000          SYSTEM LOSSES SW =           0.0000

                TOTAL IN =  1440238464.0000                  TOTAL IN =          59.9700

          OUT:                                     OUT:
          ----                                     ----
               AG WELLS  =           0.0000                 AG WELLS  =           0.0000
      DIVERSION SEGMENTS =           0.0000        DIVERSION SEGMENTS =           0.0000
       IRRIGATION PONDS  =           0.0000         IRRIGATION PONDS  =           0.0000
           GW IRRIGATION =  1440238464.0000             GW IRRIGATION =          59.9700
           SW IRRIGATION =           0.0000             SW IRRIGATION =           0.0000
        SYSTEM LOSSES GW =           0.0000          SYSTEM LOSSES GW =           0.0000
        SYSTEM LOSSES SW =           0.0000          SYSTEM LOSSES SW =           0.0000

               TOTAL OUT =  1440238464.0000                 TOTAL OUT =          59.9700

                IN - OUT =           0.0000                  IN - OUT =           0.0000

     PERCENT DISCREPANCY =           0.00         PERCENT DISCREPANCY =           0.00



1
  VOLUMETRIC BUDGET FOR ENTIRE MODEL AT END OF TIME STEP   30, STRESS PERIOD  44
  ------------------------------------------------------------------------------

     CUMULATIVE VOLUMES      L**3       RATES FOR THIS TIME STEP      L**3/T
     ------------------                 ------------------------

           IN:                                      IN:
           ---                                      ---
             STORAGE     =  1912942464.0000               STORAGE     =          57.6313
       CONSTANT HEAD     =           0.0000         CONSTANT HEAD     =           0.0000
     HEAD DEP BOUNDS     =    32421638.0000       HEAD DEP BOUNDS     =           0.2884
      STREAM LEAKAGE     =  1407600640.0000        STREAM LEAKAGE     =          12.6967
        UZF RECHARGE     =       73223.9531          UZF RECHARGE     =           0.0000
               GW ET     =           0.0000                 GW ET     =           0.0000
     SURFACE LEAKAGE     =           0.0000       SURFACE LEAKAGE     =           0.0000
           AG WELLS      =           0.0000             AG WELLS      =           0.0000

                TOTAL IN =  3353037824.0000                  TOTAL IN =          70.6165

          OUT:                                     OUT:
          ----                                     ----
             STORAGE     =   727643520.0000               STORAGE     =       9.8988E-02
       CONSTANT HEAD     =           0.0000         CONSTANT HEAD     =           0.0000
     HEAD DEP BOUNDS     =    33074334.0000       HEAD DEP BOUNDS     =           0.2925
      STREAM LEAKAGE     =  1143677696.0000        STREAM LEAKAGE     =          10.2552
        UZF RECHARGE     =           0.0000          UZF RECHARGE     =           0.0000
               GW ET     =     8413934.0000                 GW ET     =           0.0000
     SURFACE LEAKAGE     =           0.0000       SURFACE LEAKAGE     =           0.0000
           AG WELLS      =  1440238464.0000             AG WELLS      =          59.9700

               TOTAL OUT =  3353048064.0000                 TOTAL OUT =          70.6167

                IN - OUT =      -10240.0000                  IN - OUT =      -1.9836E-04

     PERCENT DISCREPANCY =          -0.00         PERCENT DISCREPANCY =          -0.00






         TIME SUMMARY AT END OF TIME STEP   30 IN STRESS PERIOD   44
                    SECONDS     MINUTES      HOURS       DAYS        YEARS
                    -----------------------------------------------------------
   TIME STEP LENGTH  87667.      1461.1      24.352      1.0147     2.77799E-03
 STRESS PERIOD TIME 2.63000E+06  43833.      730.56      30.440     8.33397E-02
         TOTAL TIME 1.13175E+08 1.88626E+06  31438.      1309.9      3.5863    
1
1
                            STRESS PERIOD NO.   45, LENGTH =   2630000.    
                            -----------------------------------------------

                              NUMBER OF TIME STEPS =    30

                               MULTIPLIER FOR DELT =     1.000

                            INITIAL TIME STEP SIZE =   87666.66    

 REUSING NON-PARAMETER GHB CELLS FROM LAST STRESS PERIOD

      2 GHB CELLS

 REUSING STREAM SEGMENT DATA FROM LAST STRESS PERIOD



            AREAL INFILTRATION RATE
 READING ON UNIT   19 WITH FORMAT: (FREE)              

            1           2           3           4           5           6           7           8           9          10
 ........................................................................................................................
   1   1.0000E-10  2.0000E-10   0.000       0.000       0.000       0.000       0.000       0.000       0.000       0.000    
   2   2.0000E-10  1.0000E-10  2.0000E-10   0.000       0.000      8.0000E-10  8.0000E-10  5.0000E-10   0.000       0.000    
   3    0.000      5.0000E-10  1.0000E-10  1.0000E-10  8.0000E-10  8.0000E-10  5.0000E-10  5.0000E-10   0.000       0.000    
   4   8.0000E-10  5.0000E-10  1.0000E-10  1.0000E-10  1.0000E-10  1.0000E-10  1.0000E-10  1.0000E-10  2.0000E-10   0.000    
   5   8.0000E-10  5.0000E-10  1.0000E-10  1.0000E-10  1.0000E-10  1.0000E-10  1.0000E-10  1.0000E-10  1.0000E-10  1.0000E-10
   6   8.0000E-10  5.0000E-10  5.0000E-10  2.0000E-10  2.0000E-10  1.0000E-10  1.0000E-10  1.0000E-10  1.0000E-10  5.0000E-10
   7   8.0000E-10  5.0000E-10  5.0000E-10  2.0000E-10  2.0000E-10  1.0000E-10  1.0000E-10  2.0000E-10  2.0000E-10   0.000    
   8    0.000      5.0000E-10  5.0000E-10  2.0000E-10  2.0000E-10  1.0000E-10  1.0000E-10  2.0000E-10  5.0000E-10   0.000    
   9    0.000      5.0000E-10  5.0000E-10  2.0000E-10  2.0000E-10  1.0000E-10  1.0000E-10  2.0000E-10  5.0000E-10   0.000    
  10    0.000      5.0000E-10  5.0000E-10  2.0000E-10  2.0000E-10  1.0000E-10  1.0000E-10  2.0000E-10  5.0000E-10  8.0000E-10
  11    0.000      1.0000E-10  1.0000E-10  1.0000E-10  1.0000E-10  1.0000E-10  1.0000E-10  2.0000E-10  5.0000E-10   0.000    
  12   1.0000E-10  1.0000E-10  1.0000E-10  1.0000E-10  1.0000E-10  1.0000E-10  1.0000E-10  1.0000E-10  2.0000E-10   0.000    
  13   1.0000E-10  1.0000E-10  2.0000E-10  2.0000E-10  2.0000E-10  2.0000E-10  2.0000E-10  1.0000E-10  1.0000E-10   0.000    
  14    0.000      2.0000E-10  5.0000E-10  5.0000E-10  5.0000E-10  5.0000E-10  5.0000E-10  2.0000E-10  1.0000E-10   0.000    
  15    0.000       0.000      8.0000E-10  8.0000E-10  8.0000E-10  8.0000E-10   0.000       0.000       0.000       0.000    

                  ET RATE =  3.250000E-07

 USING ET EXTINCTION DEPTH FROM PREVIOUS STRESS PERIOD. CURRENT PERIOD IS:      45

 USING EXTINCTION WATER CONTENT FROM PREVIOUS STRESS PERIOD. CURRENT PERIOD IS:      45

 USING AIR ENTRY PRESSURE FROM PREVIOUS STRESS PERIOD. CURRENT PERIOD IS:      45

 USING ROOT PRESSURE HEAD FROM PREVIOUS STRESS PERIOD. CURRENT PERIOD IS:      45

 USING ROOT ACTIVITY FROM PREVIOUS STRESS PERIOD. CURRENT PERIOD IS:      45

 PROCESSING AG STRESS PERIOD DATA

 READING AG STRESS PERIOD DATA

 READING IRRIGATION SEGMENT

 READING IRRIGATION WELL

 READING SUPPLEMENTAL WELL

 NO IRRPOND OR REUSING IRRPOND DATA FROM LAST STRESS PERIOD

 END PROCESSING AG STRESS PERIOD DATA OPTIONS
 
 SOLVING FOR HEAD 
                                                   Max.-Head-Change                         Max.-Flux-Residual
  Residual-Control   Outer-Iter.   Inner-Iter.     Column Row Layer    Maximum-Head-Change  Column Row Layer    Maximum-Flux-Residual          L2-NORM 
          0                 1           2             4    7     1      -0.8778729485E-01       4    7    1        -0.4618312223E+01      0.1020769340E+02
          0                 2           2             4    7     1       0.8539130713E-02       4    7    1         0.4618191019E+00      0.1020708592E+01
          0                 3           2             4    7     1      -0.5814848975E-03       4    7    1        -0.3232746577E-01      0.7144513335E-01
          0                 4           1             4    7     1       0.2313782060E-04       4    7    1         0.1322194670E-02      0.2921796440E-02

    ------------------------------------------------
       NWT REQUIRED            4 OUTER ITERATIONS 
       AND A TOTAL OF          7 INNER ITERATIONS.
    ------------------------------------------------

 NO OUTPUT CONTROL FOR STRESS PERIOD   45   TIME STEP    1
 
 SOLVING FOR HEAD 
                                                   Max.-Head-Change                         Max.-Flux-Residual
  Residual-Control   Outer-Iter.   Inner-Iter.     Column Row Layer    Maximum-Head-Change  Column Row Layer    Maximum-Flux-Residual          L2-NORM 
          0                 1           2             4    7     1      -0.8671658212E-01       4    7    1        -0.4561163346E+01      0.1014221950E+02
          0                 2           2             4    7     1       0.8434985231E-02       4    7    1         0.4561046010E+00      0.1014165306E+01
          0                 3           2             4    7     1      -0.5743929209E-03       4    7    1        -0.3192744688E-01      0.7098752160E-01
          0                 4           1             4    7     1       0.2285562443E-04       4    7    1         0.1305833887E-02      0.2903116638E-02

    ------------------------------------------------
       NWT REQUIRED            4 OUTER ITERATIONS 
       AND A TOTAL OF          7 INNER ITERATIONS.
    ------------------------------------------------

 NO OUTPUT CONTROL FOR STRESS PERIOD   45   TIME STEP    2
 
 SOLVING FOR HEAD 
                                                   Max.-Head-Change                         Max.-Flux-Residual
  Residual-Control   Outer-Iter.   Inner-Iter.     Column Row Layer    Maximum-Head-Change  Column Row Layer    Maximum-Flux-Residual          L2-NORM 
          0                 1           2             4    7     1      -0.8567417695E-01       4    7    1        -0.4505537175E+01      0.1007843751E+02
          0                 2           2             4    7     1       0.8333593064E-02       4    7    1         0.4505423545E+00      0.1007796779E+01
          0                 3           2             4    7     1      -0.5674884372E-03       4    7    1        -0.3153808595E-01      0.7054227332E-01
          0                 4           1             4    7     1       0.2258088888E-04       4    7    1         0.1289909023E-02      0.2884971605E-02

    ------------------------------------------------
       NWT REQUIRED            4 OUTER ITERATIONS 
       AND A TOTAL OF          7 INNER ITERATIONS.
    ------------------------------------------------

 NO OUTPUT CONTROL FOR STRESS PERIOD   45   TIME STEP    3
 
 SOLVING FOR HEAD 
                                                   Max.-Head-Change                         Max.-Flux-Residual
  Residual-Control   Outer-Iter.   Inner-Iter.     Column Row Layer    Maximum-Head-Change  Column Row Layer    Maximum-Flux-Residual          L2-NORM 
          0                 1           2             4    7     1      -0.8465891953E-01       4    7    1        -0.4451371583E+01      0.1001623225E+02
          0                 2           2             4    7     1       0.8234841407E-02       4    7    1         0.4451261504E+00      0.1001581690E+01
          0                 3           2             4    7     1      -0.5607637641E-03       4    7    1        -0.3115894813E-01      0.7010769886E-01
          0                 4           1             4    7     1       0.2231330770E-04       4    7    1         0.1274402259E-02      0.2867231824E-02

    ------------------------------------------------
       NWT REQUIRED            4 OUTER ITERATIONS 
       AND A TOTAL OF          7 INNER ITERATIONS.
    ------------------------------------------------

 NO OUTPUT CONTROL FOR STRESS PERIOD   45   TIME STEP    4
 
 SOLVING FOR HEAD 
                                                   Max.-Head-Change                         Max.-Flux-Residual
  Residual-Control   Outer-Iter.   Inner-Iter.     Column Row Layer    Maximum-Head-Change  Column Row Layer    Maximum-Flux-Residual          L2-NORM 
          0                 1           2             4    7     1      -0.8366995040E-01       4    7    1        -0.4398620881E+01      0.9955514808E+01
          0                 2           2             4    7     1       0.8138646668E-02       4    7    1         0.4398514204E+00      0.9955146984E+00
          0                 3           2             4    7     1      -0.5542132108E-03       4    7    1        -0.3078971367E-01      0.6968346939E-01
          0                 4           1             4    7     1       0.2205265559E-04       4    7    1         0.1259300583E-02      0.2849904086E-02

    ------------------------------------------------
       NWT REQUIRED            4 OUTER ITERATIONS 
       AND A TOTAL OF          7 INNER ITERATIONS.
    ------------------------------------------------

 NO OUTPUT CONTROL FOR STRESS PERIOD   45   TIME STEP    5
 
 SOLVING FOR HEAD 
                                                   Max.-Head-Change                         Max.-Flux-Residual
  Residual-Control   Outer-Iter.   Inner-Iter.     Column Row Layer    Maximum-Head-Change  Column Row Layer    Maximum-Flux-Residual          L2-NORM 
          0                 1           2             4    7     1      -0.8270630565E-01       4    7    1        -0.4347233279E+01      0.9896198355E+01
          0                 2           2             4    7     1       0.8023681752E-02       4    7    1         0.4333628127E+00      0.9894705316E+00
          0                 3           2             4    7     1      -0.5463843888E-03       4    7    1        -0.3033550167E-01      0.6926070908E-01
          0                 4           1             4    7     1       0.2174114022E-04       4    7    1         0.1240723320E-02      0.2832614077E-02

    ------------------------------------------------
       NWT REQUIRED            4 OUTER ITERATIONS 
       AND A TOTAL OF          7 INNER ITERATIONS.
    ------------------------------------------------

 NO OUTPUT CONTROL FOR STRESS PERIOD   45   TIME STEP    6
 
 SOLVING FOR HEAD 
                                                   Max.-Head-Change                         Max.-Flux-Residual
  Residual-Control   Outer-Iter.   Inner-Iter.     Column Row Layer    Maximum-Head-Change  Column Row Layer    Maximum-Flux-Residual          L2-NORM 
          0                 1           2             4    7     1      -0.8181386121E-01       4    7    1        -0.4298297805E+01      0.9838314592E+01
          0                 2           2             4    7     1       0.7958115873E-02       4    7    1         0.4298202272E+00      0.9838022411E+00
          0                 3           2             4    7     1      -0.5419195755E-03       4    7    1        -0.3008751929E-01      0.6886423673E-01
          0                 4           1             4    7     1       0.2156348083E-04       4    7    1         0.1230580821E-02      0.2816411393E-02

    ------------------------------------------------
       NWT REQUIRED            4 OUTER ITERATIONS 
       AND A TOTAL OF          7 INNER ITERATIONS.
    ------------------------------------------------

 NO OUTPUT CONTROL FOR STRESS PERIOD   45   TIME STEP    7
 
 SOLVING FOR HEAD 
                                                   Max.-Head-Change                         Max.-Flux-Residual
  Residual-Control   Outer-Iter.   Inner-Iter.     Column Row Layer    Maximum-Head-Change  Column Row Layer    Maximum-Flux-Residual          L2-NORM 
          0                 1           2             4    7     1      -0.8092120965E-01       4    7    1        -0.4250797359E+01      0.9781706979E+01
          0                 2           2             4    7     1       0.7871289079E-02       4    7    1         0.4250704447E+00      0.9781445603E+00
          0                 3           2             4    7     1      -0.5360069552E-03       4    7    1        -0.2975503189E-01      0.6846845300E-01
          0                 4           1             4    7     1       0.2132821286E-04       4    7    1         0.1216982106E-02      0.2800271890E-02

    ------------------------------------------------
       NWT REQUIRED            4 OUTER ITERATIONS 
       AND A TOTAL OF          7 INNER ITERATIONS.
    ------------------------------------------------

 NO OUTPUT CONTROL FOR STRESS PERIOD   45   TIME STEP    8
 
 SOLVING FOR HEAD 
                                                   Max.-Head-Change                         Max.-Flux-Residual
  Residual-Control   Outer-Iter.   Inner-Iter.     Column Row Layer    Maximum-Head-Change  Column Row Layer    Maximum-Flux-Residual          L2-NORM 
          0                 1           2             4    7     1      -0.8004933251E-01       4    7    1        -0.4204411200E+01      0.9726295029E+01
          0                 2           2             4    7     1       0.7786482933E-02       4    7    1         0.4204320816E+00      0.9726058858E+00
          0                 3           2             4    7     1      -0.5302319346E-03       4    7    1        -0.2943034395E-01      0.6808095870E-01
          0                 4           1             4    7     1       0.2109841909E-04       4    7    1         0.1203702347E-02      0.2784423282E-02

    ------------------------------------------------
       NWT REQUIRED            4 OUTER ITERATIONS 
       AND A TOTAL OF          7 INNER ITERATIONS.
    ------------------------------------------------

 NO OUTPUT CONTROL FOR STRESS PERIOD   45   TIME STEP    9
 
 SOLVING FOR HEAD 
                                                   Max.-Head-Change                         Max.-Flux-Residual
  Residual-Control   Outer-Iter.   Inner-Iter.     Column Row Layer    Maximum-Head-Change  Column Row Layer    Maximum-Flux-Residual          L2-NORM 
          0                 1           2             4    7     1      -0.7919766499E-01       4    7    1        -0.4159109456E+01      0.9672020393E+01
          0                 2           2             4    7     1       0.7703642495E-02       4    7    1         0.4159021509E+00      0.9671808285E+00
          0                 3           2             4    7     1      -0.5245907726E-03       4    7    1        -0.2911324634E-01      0.6770145652E-01
          0                 4           1             4    7     1       0.2087395227E-04       4    7    1         0.1190733055E-02      0.2768904102E-02

    ------------------------------------------------
       NWT REQUIRED            4 OUTER ITERATIONS 
       AND A TOTAL OF          7 INNER ITERATIONS.
    ------------------------------------------------

 NO OUTPUT CONTROL FOR STRESS PERIOD   45   TIME STEP   10
 
 SOLVING FOR HEAD 
                                                   Max.-Head-Change                         Max.-Flux-Residual
  Residual-Control   Outer-Iter.   Inner-Iter.     Column Row Layer    Maximum-Head-Change  Column Row Layer    Maximum-Flux-Residual          L2-NORM 
          0                 1           2             4    7     1      -0.7836565929E-01       4    7    1        -0.4114862836E+01      0.9618852811E+01
          0                 2           2             4    7     1       0.7622714487E-02       4    7    1         0.4114777237E+00      0.9618660201E+00
          0                 3           2             4    7     1      -0.5190798416E-03       4    7    1        -0.2880353410E-01      0.6732956870E-01
          0                 4           1             4    7     1       0.2065466735E-04       4    7    1         0.1178065815E-02      0.2753724074E-02

    ------------------------------------------------
       NWT REQUIRED            4 OUTER ITERATIONS 
       AND A TOTAL OF          7 INNER ITERATIONS.
    ------------------------------------------------

 NO OUTPUT CONTROL FOR STRESS PERIOD   45   TIME STEP   11
 
 SOLVING FOR HEAD 
                                                   Max.-Head-Change                         Max.-Flux-Residual
  Residual-Control   Outer-Iter.   Inner-Iter.     Column Row Layer    Maximum-Head-Change  Column Row Layer    Maximum-Flux-Residual          L2-NORM 
          0                 1           2             4    7     1      -0.7755251708E-01       4    7    1        -0.4071628508E+01      0.9566731540E+01
          0                 2           2             4    7     1       0.7543621259E-02       4    7    1         0.4071545173E+00      0.9566556146E+00
          0                 3           2             4    7     1      -0.5136938534E-03       4    7    1        -0.2850090737E-01      0.6696499043E-01
          0                 4           1             4    7     1       0.2044035421E-04       4    7    1         0.1165688376E-02      0.2738811810E-02

    ------------------------------------------------
       NWT REQUIRED            4 OUTER ITERATIONS 
       AND A TOTAL OF          7 INNER ITERATIONS.
    ------------------------------------------------

 NO OUTPUT CONTROL FOR STRESS PERIOD   45   TIME STEP   12
 
 SOLVING FOR HEAD 
                                                   Max.-Head-Change                         Max.-Flux-Residual
  Residual-Control   Outer-Iter.   Inner-Iter.     Column Row Layer    Maximum-Head-Change  Column Row Layer    Maximum-Flux-Residual          L2-NORM 
          0                 1           2             4    7     1      -0.7675773267E-01       4    7    1        -0.4029379504E+01      0.9515627046E+01
          0                 2           2             4    7     1       0.7466313625E-02       4    7    1         0.4029298351E+00      0.9515466307E+00
          0                 3           2             4    7     1      -0.5084294583E-03       4    7    1        -0.2820517742E-01      0.6660745108E-01
          0                 4           1             4    7     1       0.2023087862E-04       4    7    1         0.1153593002E-02      0.2724175627E-02

    ------------------------------------------------
       NWT REQUIRED            4 OUTER ITERATIONS 
       AND A TOTAL OF          7 INNER ITERATIONS.
    ------------------------------------------------

 NO OUTPUT CONTROL FOR STRESS PERIOD   45   TIME STEP   13
 
 SOLVING FOR HEAD 
                                                   Max.-Head-Change                         Max.-Flux-Residual
  Residual-Control   Outer-Iter.   Inner-Iter.     Column Row Layer    Maximum-Head-Change  Column Row Layer    Maximum-Flux-Residual          L2-NORM 
          0                 1           2             4    7     1      -0.7598081495E-01       4    7    1        -0.3988089599E+01      0.9465499310E+01
          0                 2           2             4    7     1       0.7390743818E-02       4    7    1         0.3988010551E+00      0.9465351604E+00
          0                 3           2             4    7     1      -0.5032834044E-03       4    7    1        -0.2791616071E-01      0.6625676797E-01
          0                 4           1             4    7     1       0.2002611279E-04       4    7    1         0.1141772211E-02      0.2709853233E-02

    ------------------------------------------------
       NWT REQUIRED            4 OUTER ITERATIONS 
       AND A TOTAL OF          7 INNER ITERATIONS.
    ------------------------------------------------

 NO OUTPUT CONTROL FOR STRESS PERIOD   45   TIME STEP   14
 
 SOLVING FOR HEAD 
                                                   Max.-Head-Change                         Max.-Flux-Residual
  Residual-Control   Outer-Iter.   Inner-Iter.     Column Row Layer    Maximum-Head-Change  Column Row Layer    Maximum-Flux-Residual          L2-NORM 
          0                 1           2             4    7     1      -0.7522089160E-01       4    7    1        -0.3947711699E+01      0.9416313296E+01
          0                 2           2             4    7     1       0.7316826990E-02       4    7    1         0.3947634681E+00      0.9416177515E+00
          0                 3           2             4    7     1      -0.4982499131E-03       4    7    1        -0.2763352756E-01      0.6591265623E-01
          0                 4           1             4    7     1       0.1982582530E-04       4    7    1         0.1130212516E-02      0.2695803940E-02

    ------------------------------------------------
       NWT REQUIRED            4 OUTER ITERATIONS 
       AND A TOTAL OF          7 INNER ITERATIONS.
    ------------------------------------------------

 NO OUTPUT CONTROL FOR STRESS PERIOD   45   TIME STEP   15
 
 SOLVING FOR HEAD 
                                                   Max.-Head-Change                         Max.-Flux-Residual
  Residual-Control   Outer-Iter.   Inner-Iter.     Column Row Layer    Maximum-Head-Change  Column Row Layer    Maximum-Flux-Residual          L2-NORM 
          0                 1           2             4    7     1      -0.7447778616E-01       4    7    1        -0.3908236619E+01      0.9368041596E+01
          0                 2           2             4    7     1       0.7244545980E-02       4    7    1         0.3908161558E+00      0.9367915681E+00
          0                 3           2             4    7     1      -0.4933278164E-03       4    7    1        -0.2735721375E-01      0.6557490720E-01
          0                 4           1             4    7     1       0.1962997080E-04       4    7    1         0.1118911269E-02      0.2681988116E-02

    ------------------------------------------------
       NWT REQUIRED            4 OUTER ITERATIONS 
       AND A TOTAL OF          7 INNER ITERATIONS.
    ------------------------------------------------

 NO OUTPUT CONTROL FOR STRESS PERIOD   45   TIME STEP   16
 
 SOLVING FOR HEAD 
                                                   Max.-Head-Change                         Max.-Flux-Residual
  Residual-Control   Outer-Iter.   Inner-Iter.     Column Row Layer    Maximum-Head-Change  Column Row Layer    Maximum-Flux-Residual          L2-NORM 
          0                 1           2             4    7     1      -0.7375066343E-01       4    7    1        -0.3869619165E+01      0.9320654002E+01
          0                 2           2             4    7     1       0.7173819552E-02       4    7    1         0.3869545994E+00      0.9320537004E+00
          0                 3           2             4    7     1      -0.4885115814E-03       4    7    1        -0.2708690289E-01      0.6524331248E-01
          0                 4           1             4    7     1       0.1943832848E-04       4    7    1         0.1107855555E-02      0.2668422985E-02

    ------------------------------------------------
       NWT REQUIRED            4 OUTER ITERATIONS 
       AND A TOTAL OF          7 INNER ITERATIONS.
    ------------------------------------------------

 NO OUTPUT CONTROL FOR STRESS PERIOD   45   TIME STEP   17
 
 SOLVING FOR HEAD 
                                                   Max.-Head-Change                         Max.-Flux-Residual
  Residual-Control   Outer-Iter.   Inner-Iter.     Column Row Layer    Maximum-Head-Change  Column Row Layer    Maximum-Flux-Residual          L2-NORM 
          0                 1           2             4    7     1      -0.7303911645E-01       4    7    1        -0.3831837656E+01      0.9274121792E+01
          0                 2           2             4    7     1       0.7104608122E-02       4    7    1         0.3831766307E+00      0.9274012658E+00
          0                 3           2             4    7     1      -0.4837985135E-03       4    7    1        -0.2682244326E-01      0.6491770651E-01
          0                 4           1             4    7     1       0.1925079080E-04       4    7    1         0.1097039133E-02      0.2655121538E-02

    ------------------------------------------------
       NWT REQUIRED            4 OUTER ITERATIONS 
       AND A TOTAL OF          7 INNER ITERATIONS.
    ------------------------------------------------

 NO OUTPUT CONTROL FOR STRESS PERIOD   45   TIME STEP   18
 
 SOLVING FOR HEAD 
                                                   Max.-Head-Change                         Max.-Flux-Residual
  Residual-Control   Outer-Iter.   Inner-Iter.     Column Row Layer    Maximum-Head-Change  Column Row Layer    Maximum-Flux-Residual          L2-NORM 
          0                 1           2             4    7     1      -0.7234275671E-01       4    7    1        -0.3794870985E+01      0.9228423293E+01
          0                 2           2             4    7     1       0.7036873903E-02       4    7    1         0.3794801396E+00      0.9228320931E+00
          0                 3           2             4    7     1      -0.4791860388E-03       4    7    1        -0.2656368709E-01      0.6459790687E-01
          0                 4           1             4    7     1       0.1906725668E-04       4    7    1         0.1086456006E-02      0.2642025955E-02

    ------------------------------------------------
       NWT REQUIRED            4 OUTER ITERATIONS 
       AND A TOTAL OF          7 INNER ITERATIONS.
    ------------------------------------------------

 NO OUTPUT CONTROL FOR STRESS PERIOD   45   TIME STEP   19
 
 SOLVING FOR HEAD 
                                                   Max.-Head-Change                         Max.-Flux-Residual
  Residual-Control   Outer-Iter.   Inner-Iter.     Column Row Layer    Maximum-Head-Change  Column Row Layer    Maximum-Flux-Residual          L2-NORM 
          0                 1           2             4    7     1      -0.7166107110E-01       4    7    1        -0.3758691802E+01      0.9183535169E+01
          0                 2           2             4    7     1       0.6970566988E-02       4    7    1         0.3758623912E+00      0.9183439208E+00
          0                 3           2             4    7     1      -0.4746707594E-03       4    7    1        -0.2631044299E-01      0.6428378959E-01
          0                 4           1             4    7     1       0.1888758982E-04       4    7    1         0.1076098326E-02      0.2629190211E-02

    ------------------------------------------------
       NWT REQUIRED            4 OUTER ITERATIONS 
       AND A TOTAL OF          7 INNER ITERATIONS.
    ------------------------------------------------

 NO OUTPUT CONTROL FOR STRESS PERIOD   45   TIME STEP   20
 
 SOLVING FOR HEAD 
                                                   Max.-Head-Change                         Max.-Flux-Residual
  Residual-Control   Outer-Iter.   Inner-Iter.     Column Row Layer    Maximum-Head-Change  Column Row Layer    Maximum-Flux-Residual          L2-NORM 
          0                 1           2             4    7     1      -0.7099343920E-01       4    7    1        -0.3723266300E+01      0.9139432061E+01
          0                 2           2             4    7     1       0.6905627030E-02       4    7    1         0.3723200051E+00      0.9139341511E+00
          0                 3           2             4    7     1      -0.4702485650E-03       4    7    1        -0.2606247429E-01      0.6397513254E-01
          0                 4           1             4    7     1       0.1871162626E-04       4    7    1         0.1065956383E-02      0.2616558315E-02

    ------------------------------------------------
       NWT REQUIRED            4 OUTER ITERATIONS 
       AND A TOTAL OF          7 INNER ITERATIONS.
    ------------------------------------------------

 NO OUTPUT CONTROL FOR STRESS PERIOD   45   TIME STEP   21
 
 SOLVING FOR HEAD 
                                                   Max.-Head-Change                         Max.-Flux-Residual
  Residual-Control   Outer-Iter.   Inner-Iter.     Column Row Layer    Maximum-Head-Change  Column Row Layer    Maximum-Flux-Residual          L2-NORM 
          0                 1           2             4    7     1      -0.7033966005E-01       4    7    1        -0.3688583916E+01      0.9096097147E+01
          0                 2           2             4    7     1       0.6842034485E-02       4    7    1         0.3688519251E+00      0.9096011430E+00
          0                 3           2             4    7     1      -0.4659181259E-03       4    7    1        -0.2581970710E-01      0.6367186297E-01
          0                 4           1             4    7     1       0.1853931420E-04       4    7    1         0.1056027209E-02      0.2604170419E-02

    ------------------------------------------------
       NWT REQUIRED            4 OUTER ITERATIONS 
       AND A TOTAL OF          7 INNER ITERATIONS.
    ------------------------------------------------

 NO OUTPUT CONTROL FOR STRESS PERIOD   45   TIME STEP   22
 
 SOLVING FOR HEAD 
                                                   Max.-Head-Change                         Max.-Flux-Residual
  Residual-Control   Outer-Iter.   Inner-Iter.     Column Row Layer    Maximum-Head-Change  Column Row Layer    Maximum-Flux-Residual          L2-NORM 
          0                 1           2             4    7     1      -0.6969901120E-01       4    7    1        -0.3654605423E+01      0.9053502867E+01
          0                 2           2             4    7     1       0.6779719082E-02       4    7    1         0.3654542289E+00      0.9053421245E+00
          0                 3           2             4    7     1      -0.4616746558E-03       4    7    1        -0.2558186681E-01      0.6337375293E-01
          0                 4           1             4    7     1       0.1837046277E-04       4    7    1         0.1046299544E-02      0.2591975677E-02

    ------------------------------------------------
       NWT REQUIRED            4 OUTER ITERATIONS 
       AND A TOTAL OF          7 INNER ITERATIONS.
    ------------------------------------------------

 NO OUTPUT CONTROL FOR STRESS PERIOD   45   TIME STEP   23
 
 SOLVING FOR HEAD 
                                                   Max.-Head-Change                         Max.-Flux-Residual
  Residual-Control   Outer-Iter.   Inner-Iter.     Column Row Layer    Maximum-Head-Change  Column Row Layer    Maximum-Flux-Residual          L2-NORM 
          0                 1           2             4    7     1      -0.6907132652E-01       4    7    1        -0.3621322163E+01      0.9011629083E+01
          0                 2           2             4    7     1       0.6718664664E-02       4    7    1         0.3621260510E+00      0.9011551422E+00
          0                 3           2             4    7     1      -0.4575170545E-03       4    7    1        -0.2534889285E-01      0.6308068883E-01
          0                 4           1             4    7     1       0.1820502763E-04       4    7    1         0.1036770885E-02      0.2579981856E-02

    ------------------------------------------------
       NWT REQUIRED            4 OUTER ITERATIONS 
       AND A TOTAL OF          7 INNER ITERATIONS.
    ------------------------------------------------

 NO OUTPUT CONTROL FOR STRESS PERIOD   45   TIME STEP   24
 
 SOLVING FOR HEAD 
                                                   Max.-Head-Change                         Max.-Flux-Residual
  Residual-Control   Outer-Iter.   Inner-Iter.     Column Row Layer    Maximum-Head-Change  Column Row Layer    Maximum-Flux-Residual          L2-NORM 
          0                 1           2             4    7     1      -0.6845618391E-01       4    7    1        -0.3588711120E+01      0.8970468773E+01
          0                 2           2             4    7     1       0.6658830175E-02       4    7    1         0.3588650898E+00      0.8970394718E+00
          0                 3           2             4    7     1      -0.4534425274E-03       4    7    1        -0.2512062412E-01      0.6279262386E-01
          0                 4           1             4    7     1       0.1804289907E-04       4    7    1         0.1027434708E-02      0.2568213404E-02

    ------------------------------------------------
       NWT REQUIRED            4 OUTER ITERATIONS 
       AND A TOTAL OF          7 INNER ITERATIONS.
    ------------------------------------------------

 NO OUTPUT CONTROL FOR STRESS PERIOD   45   TIME STEP   25
 
 SOLVING FOR HEAD 
                                                   Max.-Head-Change                         Max.-Flux-Residual
  Residual-Control   Outer-Iter.   Inner-Iter.     Column Row Layer    Maximum-Head-Change  Column Row Layer    Maximum-Flux-Residual          L2-NORM 
          0                 1           2             4    7     1      -0.6785317552E-01       4    7    1        -0.3556750410E+01      0.8930001473E+01
          0                 2           2             4    7     1       0.6600175945E-02       4    7    1         0.3556691570E+00      0.8929930469E+00
          0                 3           2             4    7     1      -0.4494483719E-03       4    7    1        -0.2489690742E-01      0.6250939567E-01
          0                 4           1             4    7     1       0.1788396795E-04       4    7    1         0.1018284686E-02      0.2556623649E-02

    ------------------------------------------------
       NWT REQUIRED            4 OUTER ITERATIONS 
       AND A TOTAL OF          7 INNER ITERATIONS.
    ------------------------------------------------

 NO OUTPUT CONTROL FOR STRESS PERIOD   45   TIME STEP   26
 
 SOLVING FOR HEAD 
                                                   Max.-Head-Change                         Max.-Flux-Residual
  Residual-Control   Outer-Iter.   Inner-Iter.     Column Row Layer    Maximum-Head-Change  Column Row Layer    Maximum-Flux-Residual          L2-NORM 
          0                 1           2             4    7     1      -0.6726177818E-01       4    7    1        -0.3525411687E+01      0.8890200890E+01
          0                 2           2             4    7     1       0.6542651087E-02       4    7    1         0.3525354186E+00      0.8890132823E+00
          0                 3           2             4    7     1      -0.4455311228E-03       4    7    1        -0.2467754437E-01      0.6223082054E-01
          0                 4           1             4    7     1       0.1772809681E-04       4    7    1         0.1009312714E-02      0.2545254435E-02

    ------------------------------------------------
       NWT REQUIRED            4 OUTER ITERATIONS 
       AND A TOTAL OF          7 INNER ITERATIONS.
    ------------------------------------------------

 NO OUTPUT CONTROL FOR STRESS PERIOD   45   TIME STEP   27
 
 SOLVING FOR HEAD 
                                                   Max.-Head-Change                         Max.-Flux-Residual
  Residual-Control   Outer-Iter.   Inner-Iter.     Column Row Layer    Maximum-Head-Change  Column Row Layer    Maximum-Flux-Residual          L2-NORM 
          0                 1           2             4    7     1      -0.6668188777E-01       4    7    1        -0.3494689411E+01      0.8851056657E+01
          0                 2           2             4    7     1       0.6486245476E-02       4    7    1         0.3494633205E+00      0.8850991212E+00
          0                 3           2             4    7     1      -0.4416900911E-03       4    7    1        -0.2446249619E-01      0.6195685409E-01
          0                 4           1             4    7     1       0.1757525859E-04       4    7    1         0.1000517241E-02      0.2534028383E-02

    ------------------------------------------------
       NWT REQUIRED            4 OUTER ITERATIONS 
       AND A TOTAL OF          7 INNER ITERATIONS.
    ------------------------------------------------

 NO OUTPUT CONTROL FOR STRESS PERIOD   45   TIME STEP   28
 
 SOLVING FOR HEAD 
                                                   Max.-Head-Change                         Max.-Flux-Residual
  Residual-Control   Outer-Iter.   Inner-Iter.     Column Row Layer    Maximum-Head-Change  Column Row Layer    Maximum-Flux-Residual          L2-NORM 
          0                 1           2             4    7     1      -0.6611300439E-01       4    7    1        -0.3464556599E+01      0.8812550401E+01
          0                 2           2             4    7     1       0.6430910489E-02       4    7    1         0.3464501646E+00      0.8812487316E+00
          0                 3           2             4    7     1      -0.4379219655E-03       4    7    1        -0.2425157400E-01      0.6168734095E-01
          0                 4           1             4    7     1       0.1742532147E-04       4    7    1         0.9918905162E-03      0.2523004090E-02

    ------------------------------------------------
       NWT REQUIRED            4 OUTER ITERATIONS 
       AND A TOTAL OF          7 INNER ITERATIONS.
    ------------------------------------------------

 NO OUTPUT CONTROL FOR STRESS PERIOD   45   TIME STEP   29
 
 SOLVING FOR HEAD 
                                                   Max.-Head-Change                         Max.-Flux-Residual
  Residual-Control   Outer-Iter.   Inner-Iter.     Column Row Layer    Maximum-Head-Change  Column Row Layer    Maximum-Flux-Residual          L2-NORM 
          0                 1           2             4    7     1      -0.6555491541E-01       4    7    1        -0.3435001717E+01      0.8774678011E+01
          0                 2           2             4    7     1       0.6376625444E-02       4    7    1         0.3434947977E+00      0.8774617069E+00
          0                 3           2             4    7     1      -0.4342253379E-03       4    7    1        -0.2404469709E-01      0.6142226548E-01
          0                 4           1             4    7     1       0.1727822938E-04       4    7    1         0.9834292430E-03      0.2512166810E-02

    ------------------------------------------------
       NWT REQUIRED            4 OUTER ITERATIONS 
       AND A TOTAL OF          7 INNER ITERATIONS.
    ------------------------------------------------

 NO OUTPUT CONTROL FOR STRESS PERIOD   45   TIME STEP   30



 STREAM LISTING     PERIOD     45   STEP       30

 LAYER ROW COL. STREAM  RCH.  FLOW INTO     FLOW TO   FLOW OUT OF   OVRLND.     DIRECT     STREAM       STREAM     STREAM     STREAM   STREAMBED  STREAMBED
                SEG.NO.  NO.  STRM. RCH.    AQUIFER    STRM. RCH.    RUNOFF     PRECIP       ET          HEAD       DEPTH      WIDTH   CONDCTNC.   GRADIENT

   1    1    1     1     1    2.7749E+01  2.5751E-01   2.7492E+01  0.000E+00  0.000E+00  0.000E+00  1.09427E+03  1.218E+00  1.357E+01  6.105E-02  1.406E+00
   1    2    2     1     2    2.7492E+01  3.9832E-01   2.7093E+01  0.000E+00  0.000E+00  0.000E+00  1.08927E+03  1.213E+00  1.351E+01  9.454E-02  1.404E+00
   1    3    3     1     3    2.7093E+01  3.3923E-01   2.6754E+01  0.000E+00  0.000E+00  0.000E+00  1.08363E+03  1.208E+00  1.344E+01  8.062E-02  1.403E+00
   1    3    4     1     4    2.6754E+01  3.1200E-01   2.6442E+01  0.000E+00  0.000E+00  0.000E+00  1.07861E+03  1.203E+00  1.337E+01  7.422E-02  1.401E+00
   1    4    5     2     1    2.4442E+01  3.2655E-01   2.4116E+01  0.000E+00  0.000E+00  0.000E+00  1.07312E+03  1.187E+00  1.200E+01  7.800E-02  1.396E+00
   1    5    6     2     2    2.4116E+01  2.5068E-01   2.3865E+01  0.000E+00  0.000E+00  0.000E+00  1.06769E+03  1.178E+00  1.200E+01  6.000E-02  1.393E+00
   1    6    6     2     3    2.3865E+01  2.5024E-01   2.3615E+01  0.000E+00  0.000E+00  0.000E+00  1.06296E+03  1.171E+00  1.200E+01  6.000E-02  1.390E+00
   1    7    6     2     4    2.3615E+01  2.4979E-01   2.3365E+01  0.000E+00  0.000E+00  0.000E+00  1.05824E+03  1.163E+00  1.200E+01  6.000E-02  1.388E+00
   1    8    6     2     5    2.3365E+01  2.4935E-01   2.3115E+01  0.000E+00  0.000E+00  0.000E+00  1.05351E+03  1.156E+00  1.200E+01  6.000E-02  1.385E+00
   1    3    5     3     1    2.0000E+00  2.8252E-01   1.7175E+00  0.000E+00  0.000E+00  0.000E+00  1.07555E+03  1.909E+00  9.636E+00  7.227E-02  1.955E+00
   1    3    6     3     2    1.7175E+00  2.4905E-01   1.4684E+00  0.000E+00  0.000E+00  0.000E+00  1.07264E+03  1.727E+00  8.909E+00  6.682E-02  1.864E+00
   1    3    7     3     3    1.4684E+00  1.9718E-01   1.2712E+00  0.000E+00  0.000E+00  0.000E+00  1.06987E+03  1.555E+00  8.218E+00  5.547E-02  1.777E+00
   1    4    8     3     4    1.2712E+00  2.2567E-01   1.0456E+00  0.000E+00  0.000E+00  0.000E+00  1.06682E+03  1.364E+00  7.455E+00  6.709E-02  1.682E+00
   1    5    8     3     5    1.0456E+00  1.5790E-01   8.8768E-01  0.000E+00  0.000E+00  0.000E+00  1.06362E+03  1.164E+00  6.655E+00  4.991E-02  1.582E+00
   1    6    8     3     6    8.8768E-01  5.5980E-02   8.3170E-01  0.000E+00  0.000E+00  0.000E+00  1.06158E+03  1.036E+00  6.145E+00  1.844E-02  1.518E+00
   1    5   10     4     1    1.0000E+01  9.0919E-02   9.9091E+00  0.000E+00  0.000E+00  0.000E+00  1.07836E+03  6.368E-01  1.000E+01  2.500E-02  1.212E+00
   1    5    9     4     2    9.9091E+00  1.8158E-01   9.7275E+00  0.000E+00  0.000E+00  0.000E+00  1.07154E+03  6.315E-01  1.000E+01  5.000E-02  1.211E+00
   1    6    8     4     3    9.7275E+00  1.2689E-01   9.6006E+00  0.000E+00  0.000E+00  0.000E+00  1.06381E+03  6.256E-01  1.000E+01  3.500E-02  1.209E+00
   1    6    8     5     1    1.0432E+01  2.2686E-01   1.0205E+01  0.000E+00  0.000E+00  0.000E+00  1.05868E+03  6.790E-01  1.542E+01  6.166E-02  1.226E+00
   1    7    7     5     2    1.0205E+01  2.7894E-01   9.9265E+00  0.000E+00  0.000E+00  0.000E+00  1.05417E+03  6.732E-01  1.519E+01  7.594E-02  1.224E+00
   1    8    7     5     3    9.9265E+00  1.9221E-01   9.7343E+00  0.000E+00  0.000E+00  0.000E+00  1.04992E+03  6.676E-01  1.497E+01  5.241E-02  1.223E+00
   1    8    6     5     4    9.7343E+00  1.3577E-01   9.5985E+00  0.000E+00  0.000E+00  0.000E+00  1.04691E+03  6.637E-01  1.482E+01  3.706E-02  1.221E+00
   1    9    6     6     1    3.2714E+01  2.6588E-01   3.2448E+01  0.000E+00  0.000E+00  0.000E+00  1.04416E+03  1.431E+00  1.200E+01  6.000E-02  1.477E+00
   1   10    7     6     2    3.2448E+01  2.6546E-01   3.2183E+01  0.000E+00  0.000E+00  0.000E+00  1.03961E+03  1.424E+00  1.200E+01  6.000E-02  1.475E+00
   1   11    7     6     3    3.2183E+01  2.6504E-01   3.1918E+01  0.000E+00  0.000E+00  0.000E+00  1.03505E+03  1.417E+00  1.200E+01  6.000E-02  1.472E+00
   1   12    7     6     4    3.1918E+01  2.6462E-01   3.1653E+01  0.000E+00  0.000E+00  0.000E+00  1.03050E+03  1.410E+00  1.200E+01  6.000E-02  1.470E+00
   1   13    7     6     5    3.1653E+01  1.6462E-02   3.1637E+01  0.000E+00  0.000E+00  0.000E+00  1.02732E+03  1.407E+00  1.200E+01  2.400E-02  2.286E-01
   1   14    9     7     1    1.5000E+02  1.3767E+00   1.4862E+02  0.000E+00  0.000E+00  0.000E+00  1.03987E+03  2.288E+00  5.529E+01  5.593E-01  8.205E-01
   1   13    8     7     2    1.4862E+02  1.9771E+00   1.4665E+02  0.000E+00  0.000E+00  0.000E+00  1.03478E+03  2.279E+00  5.525E+01  6.147E-01  1.072E+00
   1   13    7     7     3    1.4665E+02  1.7078E+00   1.4494E+02  0.000E+00  0.000E+00  0.000E+00  1.02969E+03  2.269E+00  5.521E+01  5.584E-01  1.019E+00
   1   13    6     8     1    1.7658E+02  1.1721E+00   1.7540E+02  0.000E+00  0.000E+00  0.000E+00  1.02487E+03  2.991E+00  4.337E+01  4.419E-01  8.841E-01
   1   13    5     8     2    1.7540E+02  3.9128E-01   1.7501E+02  0.000E+00  0.000E+00  0.000E+00  1.01861E+03  2.986E+00  4.329E+01  4.412E-01  2.956E-01
   1   13    4     8     3    1.7501E+02 -1.7466E+00   1.7676E+02  0.000E+00  0.000E+00  0.000E+00  1.01237E+03  2.990E+00  4.336E+01  4.418E+00 -1.318E-01
   1   13    3     8     4    1.7676E+02 -3.3246E+00   1.8008E+02  0.000E+00  0.000E+00  0.000E+00  1.00613E+03  3.006E+00  4.359E+01  4.442E+00 -2.495E-01
   1   13    2     8     5    1.8008E+02 -2.5119E+00   1.8259E+02  0.000E+00  0.000E+00  0.000E+00  9.99900E+02  3.025E+00  4.386E+01  4.469E+00 -1.874E-01
   1   13    1     8     6    1.8259E+02 -1.9932E+00   1.8459E+02  0.000E+00  0.000E+00  0.000E+00  9.94914E+02  3.039E+00  4.406E+01  2.694E+00 -2.466E-01
   1    8    6     9     1    0.0000E+00  0.0000E+00   0.0000E+00  0.000E+00  0.000E+00  0.000E+00  1.07875E+03  0.000E+00  4.000E+00  0.000E+00  1.000E+00
   1    8    5     9     2    0.0000E+00  0.0000E+00   0.0000E+00  0.000E+00  0.000E+00  0.000E+00  1.07825E+03  0.000E+00  4.000E+00  0.000E+00  1.000E+00





UNSATURATED ZONE PACKAGE VOLUMETRIC BUDGET FOR  TIME STEP    30 STRESS PERIOD   45
  ------------------------------------------------------------------------------



     CUMULATIVE VOLUMES      L**3       RATES FOR THIS TIME STEP      L**3/T
     ------------------                 ------------------------

           IN:                                      IN:
           ---                                      ---
        INFILTRATION =  1666520603.5085          INFILTRATION =          49.5675

          OUT:                                     OUT:
          ----                                     ----
              UZF ET =  1665695038.5204                UZF ET =          49.5675
        UZF RECHARGE =       73224.0000          UZF RECHARGE =       0.0000E+00

            IN - OUT =      752340.9881              IN - OUT =       0.0000E+00

          STORAGE:                                 STORAGE:
          --------                                 --------
      STORAGE CHANGE =      752341.1376        STORAGE CHANGE =      -1.6599E-15

 PERCENT DISCREPANCY IS DIFFERENCE BETWEEN IN-OUT MINUS CHANGE IN STORAGE
 DIVIDED BY THE AVERAGE OF IN AND OUT TIMES 100

 PERCENT DISCREPANCY =           0.00     PERCENT DISCREPANCY =           0.00






1
  VOLUMETRIC BUDGET FOR AGRICULTURAL FIELDS AT  END OF TIME STEP   30, STRESS PERIOD  45
  ------------------------------------------------------------------------------

     CUMULATIVE VOLUMES      L**3       RATES FOR THIS TIME STEP      L**3/T
     ------------------                 ------------------------

           IN:                                      IN:
           ---                                      ---
               AG WELLS  =  1568371584.0000                 AG WELLS  =          48.7200
      DIVERSION SEGMENTS =           0.0000        DIVERSION SEGMENTS =           0.0000
       IRRIGATION PONDS  =           0.0000         IRRIGATION PONDS  =           0.0000
           GW IRRIGATION =           0.0000             GW IRRIGATION =           0.0000
           SW IRRIGATION =           0.0000             SW IRRIGATION =           0.0000
        SYSTEM LOSSES GW =           0.0000          SYSTEM LOSSES GW =           0.0000
        SYSTEM LOSSES SW =           0.0000          SYSTEM LOSSES SW =           0.0000

                TOTAL IN =  1568371584.0000                  TOTAL IN =          48.7200

          OUT:                                     OUT:
          ----                                     ----
               AG WELLS  =           0.0000                 AG WELLS  =           0.0000
      DIVERSION SEGMENTS =           0.0000        DIVERSION SEGMENTS =           0.0000
       IRRIGATION PONDS  =           0.0000         IRRIGATION PONDS  =           0.0000
           GW IRRIGATION =  1568371584.0000             GW IRRIGATION =          48.7200
           SW IRRIGATION =           0.0000             SW IRRIGATION =           0.0000
        SYSTEM LOSSES GW =           0.0000          SYSTEM LOSSES GW =           0.0000
        SYSTEM LOSSES SW =           0.0000          SYSTEM LOSSES SW =           0.0000

               TOTAL OUT =  1568371584.0000                 TOTAL OUT =          48.7200

                IN - OUT =           0.0000                  IN - OUT =           0.0000

     PERCENT DISCREPANCY =           0.00         PERCENT DISCREPANCY =           0.00



1
  VOLUMETRIC BUDGET FOR ENTIRE MODEL AT END OF TIME STEP   30, STRESS PERIOD  45
  ------------------------------------------------------------------------------

     CUMULATIVE VOLUMES      L**3       RATES FOR THIS TIME STEP      L**3/T
     ------------------                 ------------------------

           IN:                                      IN:
           ---                                      ---
             STORAGE     =  2033635840.0000               STORAGE     =          45.6524
       CONSTANT HEAD     =           0.0000         CONSTANT HEAD     =           0.0000
     HEAD DEP BOUNDS     =    33180346.0000       HEAD DEP BOUNDS     =           0.2885
      STREAM LEAKAGE     =  1441050880.0000        STREAM LEAKAGE     =          12.7375
        UZF RECHARGE     =       73223.9531          UZF RECHARGE     =           0.0000
               GW ET     =           0.0000                 GW ET     =           0.0000
     SURFACE LEAKAGE     =           0.0000       SURFACE LEAKAGE     =           0.0000
           AG WELLS      =           0.0000             AG WELLS      =           0.0000

                TOTAL IN =  3507940352.0000                  TOTAL IN =          58.6784

          OUT:                                     OUT:
          ----                                     ----
             STORAGE     =   727893440.0000               STORAGE     =       9.1443E-02
       CONSTANT HEAD     =           0.0000         CONSTANT HEAD     =           0.0000
     HEAD DEP BOUNDS     =    33840828.0000       HEAD DEP BOUNDS     =           0.2908
      STREAM LEAKAGE     =  1169430784.0000        STREAM LEAKAGE     =           9.5763
        UZF RECHARGE     =           0.0000          UZF RECHARGE     =           0.0000
               GW ET     =     8413934.0000                 GW ET     =           0.0000
     SURFACE LEAKAGE     =           0.0000       SURFACE LEAKAGE     =           0.0000
           AG WELLS      =  1568371584.0000             AG WELLS      =          48.7200

               TOTAL OUT =  3507950592.0000                 TOTAL OUT =          58.6786

                IN - OUT =      -10240.0000                  IN - OUT =      -1.6403E-04

     PERCENT DISCREPANCY =          -0.00         PERCENT DISCREPANCY =          -0.00






         TIME SUMMARY AT END OF TIME STEP   30 IN STRESS PERIOD   45
                    SECONDS     MINUTES      HOURS       DAYS        YEARS
                    -----------------------------------------------------------
   TIME STEP LENGTH  87667.      1461.1      24.352      1.0147     2.77799E-03
 STRESS PERIOD TIME 2.63000E+06  43833.      730.56      30.440     8.33397E-02
         TOTAL TIME 1.15805E+08 1.93009E+06  32168.      1340.3      3.6696    
1
1
                            STRESS PERIOD NO.   46, LENGTH =   2630000.    
                            -----------------------------------------------

                              NUMBER OF TIME STEPS =    30

                               MULTIPLIER FOR DELT =     1.000

                            INITIAL TIME STEP SIZE =   87666.66    

 REUSING NON-PARAMETER GHB CELLS FROM LAST STRESS PERIOD

      2 GHB CELLS

 REUSING STREAM SEGMENT DATA FROM LAST STRESS PERIOD



            AREAL INFILTRATION RATE
 READING ON UNIT   19 WITH FORMAT: (FREE)              

            1           2           3           4           5           6           7           8           9          10
 ........................................................................................................................
   1   1.0000E-10  2.0000E-10   0.000       0.000       0.000       0.000       0.000       0.000       0.000       0.000    
   2   2.0000E-10  1.0000E-10  2.0000E-10   0.000       0.000      8.0000E-10  8.0000E-10  5.0000E-10   0.000       0.000    
   3    0.000      5.0000E-10  1.0000E-10  1.0000E-10  8.0000E-10  8.0000E-10  5.0000E-10  5.0000E-10   0.000       0.000    
   4   8.0000E-10  5.0000E-10  1.0000E-10  1.0000E-10  1.0000E-10  1.0000E-10  1.0000E-10  1.0000E-10  2.0000E-10   0.000    
   5   8.0000E-10  5.0000E-10  1.0000E-10  1.0000E-10  1.0000E-10  1.0000E-10  1.0000E-10  1.0000E-10  1.0000E-10  1.0000E-10
   6   8.0000E-10  5.0000E-10  5.0000E-10  2.0000E-10  2.0000E-10  1.0000E-10  1.0000E-10  1.0000E-10  1.0000E-10  5.0000E-10
   7   8.0000E-10  5.0000E-10  5.0000E-10  2.0000E-10  2.0000E-10  1.0000E-10  1.0000E-10  2.0000E-10  2.0000E-10   0.000    
   8    0.000      5.0000E-10  5.0000E-10  2.0000E-10  2.0000E-10  1.0000E-10  1.0000E-10  2.0000E-10  5.0000E-10   0.000    
   9    0.000      5.0000E-10  5.0000E-10  2.0000E-10  2.0000E-10  1.0000E-10  1.0000E-10  2.0000E-10  5.0000E-10   0.000    
  10    0.000      5.0000E-10  5.0000E-10  2.0000E-10  2.0000E-10  1.0000E-10  1.0000E-10  2.0000E-10  5.0000E-10  8.0000E-10
  11    0.000      1.0000E-10  1.0000E-10  1.0000E-10  1.0000E-10  1.0000E-10  1.0000E-10  2.0000E-10  5.0000E-10   0.000    
  12   1.0000E-10  1.0000E-10  1.0000E-10  1.0000E-10  1.0000E-10  1.0000E-10  1.0000E-10  1.0000E-10  2.0000E-10   0.000    
  13   1.0000E-10  1.0000E-10  2.0000E-10  2.0000E-10  2.0000E-10  2.0000E-10  2.0000E-10  1.0000E-10  1.0000E-10   0.000    
  14    0.000      2.0000E-10  5.0000E-10  5.0000E-10  5.0000E-10  5.0000E-10  5.0000E-10  2.0000E-10  1.0000E-10   0.000    
  15    0.000       0.000      8.0000E-10  8.0000E-10  8.0000E-10  8.0000E-10   0.000       0.000       0.000       0.000    

                  ET RATE =  7.500000E-08

 USING ET EXTINCTION DEPTH FROM PREVIOUS STRESS PERIOD. CURRENT PERIOD IS:      46

 USING EXTINCTION WATER CONTENT FROM PREVIOUS STRESS PERIOD. CURRENT PERIOD IS:      46

 USING AIR ENTRY PRESSURE FROM PREVIOUS STRESS PERIOD. CURRENT PERIOD IS:      46

 USING ROOT PRESSURE HEAD FROM PREVIOUS STRESS PERIOD. CURRENT PERIOD IS:      46

 USING ROOT ACTIVITY FROM PREVIOUS STRESS PERIOD. CURRENT PERIOD IS:      46

 PROCESSING AG STRESS PERIOD DATA

 READING AG STRESS PERIOD DATA

 READING IRRIGATION SEGMENT

 READING IRRIGATION WELL

 READING SUPPLEMENTAL WELL

 NO IRRPOND OR REUSING IRRPOND DATA FROM LAST STRESS PERIOD

 END PROCESSING AG STRESS PERIOD DATA OPTIONS
 
 SOLVING FOR HEAD 
                                                   Max.-Head-Change                         Max.-Flux-Residual
  Residual-Control   Outer-Iter.   Inner-Iter.     Column Row Layer    Maximum-Head-Change  Column Row Layer    Maximum-Flux-Residual          L2-NORM 
          0                 1           2             5    8     1       0.7084525145E-01       5    8    1         0.3854697273E+01      0.1002277691E+02
          0                 2           2             5    8     1      -0.6891208244E-02       5    8    1        -0.3854625464E+00      0.1002254651E+01
          0                 3           2             5    8     1       0.4692667823E-03       5    8    1         0.2698246009E-01      0.7015796906E-01
          0                 4           1             5    8     1      -0.1867256012E-04       5    8    1        -0.1103583839E-02      0.2869460042E-02

    ------------------------------------------------
       NWT REQUIRED            4 OUTER ITERATIONS 
       AND A TOTAL OF          7 INNER ITERATIONS.
    ------------------------------------------------

 NO OUTPUT CONTROL FOR STRESS PERIOD   46   TIME STEP    1
 
 SOLVING FOR HEAD 
                                                   Max.-Head-Change                         Max.-Flux-Residual
  Residual-Control   Outer-Iter.   Inner-Iter.     Column Row Layer    Maximum-Head-Change  Column Row Layer    Maximum-Flux-Residual          L2-NORM 
          0                 1           2             5    8     1       0.6771689145E-01       5    8    1         0.3681453795E+01      0.9703516919E+01
          0                 2           2             5    8     1      -0.6586911342E-02       5    8    1        -0.3681386988E+00      0.9703308989E+00
          0                 3           2             5    8     1       0.4485452203E-03       5    8    1         0.2576978550E-01      0.6792328738E-01
          0                 4           1             5    8     1      -0.1784802972E-04       5    8    1        -0.1053985382E-02      0.2778057839E-02

    ------------------------------------------------
       NWT REQUIRED            4 OUTER ITERATIONS 
       AND A TOTAL OF          7 INNER ITERATIONS.
    ------------------------------------------------

 NO OUTPUT CONTROL FOR STRESS PERIOD   46   TIME STEP    2
 
 SOLVING FOR HEAD 
                                                   Max.-Head-Change                         Max.-Flux-Residual
  Residual-Control   Outer-Iter.   Inner-Iter.     Column Row Layer    Maximum-Head-Change  Column Row Layer    Maximum-Flux-Residual          L2-NORM 
          0                 1           2             5    8     1       0.6477581433E-01       5    8    1         0.3518894916E+01      0.9420145030E+01
          0                 2           2             5    8     1      -0.6300830583E-02       5    8    1        -0.3518832159E+00      0.9419659903E+00
          0                 3           2             5    8     1       0.4290641245E-03       5    8    1         0.2463189739E-01      0.6593498740E-01
          0                 4           1             5    8     1      -0.1707285901E-04       5    8    1        -0.1007445725E-02      0.2696490983E-02

    ------------------------------------------------
       NWT REQUIRED            4 OUTER ITERATIONS 
       AND A TOTAL OF          7 INNER ITERATIONS.
    ------------------------------------------------

 NO OUTPUT CONTROL FOR STRESS PERIOD   46   TIME STEP    3
 
 SOLVING FOR HEAD 
                                                   Max.-Head-Change                         Max.-Flux-Residual
  Residual-Control   Outer-Iter.   Inner-Iter.     Column Row Layer    Maximum-Head-Change  Column Row Layer    Maximum-Flux-Residual          L2-NORM 
          0                 1           2             5    8     1       0.6201072465E-01       5    8    1         0.3366054202E+01      0.9140765137E+01
          0                 2           2             5    8     1      -0.6031868734E-02       5    8    1        -0.3365995586E+00      0.9140182352E+00
          0                 3           2             5    8     1       0.4107487611E-03       5    8    1         0.2356203699E-01      0.6397763755E-01
          0                 4           1             5    8     1      -0.1634407390E-04       5    8    1        -0.9636883822E-03      0.2616483887E-02

    ------------------------------------------------
       NWT REQUIRED            4 OUTER ITERATIONS 
       AND A TOTAL OF          7 INNER ITERATIONS.
    ------------------------------------------------

 NO OUTPUT CONTROL FOR STRESS PERIOD   46   TIME STEP    4
 
 SOLVING FOR HEAD 
                                                   Max.-Head-Change                         Max.-Flux-Residual
  Residual-Control   Outer-Iter.   Inner-Iter.     Column Row Layer    Maximum-Head-Change  Column Row Layer    Maximum-Flux-Residual          L2-NORM 
          0                 1           2             5    8     1       0.5941052277E-01       5    8    1         0.3222376917E+01      0.8868753219E+01
          0                 2           2             5    8     1      -0.5778945766E-02       5    8    1        -0.3222322300E+00      0.8868232414E+00
          0                 3           2             5    8     1       0.3935255882E-03       5    8    1         0.2255631977E-01      0.6207438981E-01
          0                 4           1             5    8     1      -0.1565874796E-04       5    8    1        -0.9225545105E-03      0.2538627937E-02

    ------------------------------------------------
       NWT REQUIRED            4 OUTER ITERATIONS 
       AND A TOTAL OF          7 INNER ITERATIONS.
    ------------------------------------------------

 NO OUTPUT CONTROL FOR STRESS PERIOD   46   TIME STEP    5
 
 SOLVING FOR HEAD 
                                                   Max.-Head-Change                         Max.-Flux-Residual
  Residual-Control   Outer-Iter.   Inner-Iter.     Column Row Layer    Maximum-Head-Change  Column Row Layer    Maximum-Flux-Residual          L2-NORM 
          0                 1           2             5    7     1       0.5712986040E-01       5    8    1         0.3087256595E+01      0.8610725770E+01
          0                 2           2             5    7     1      -0.5557136861E-02       5    8    1        -0.3087205682E+00      0.8610259822E+00
          0                 3           2             5    7     1       0.3784208597E-03       5    8    1         0.2161049954E-01      0.6026890132E-01
          0                 4           1             5    7     1      -0.1505771972E-04       5    8    1        -0.8838704236E-03      0.2464807290E-02

    ------------------------------------------------
       NWT REQUIRED            4 OUTER ITERATIONS 
       AND A TOTAL OF          7 INNER ITERATIONS.
    ------------------------------------------------

 NO OUTPUT CONTROL FOR STRESS PERIOD   46   TIME STEP    6
 
 SOLVING FOR HEAD 
                                                   Max.-Head-Change                         Max.-Flux-Residual
  Residual-Control   Outer-Iter.   Inner-Iter.     Column Row Layer    Maximum-Head-Change  Column Row Layer    Maximum-Flux-Residual          L2-NORM 
          0                 1           2             5    7     1       0.5586931407E-01       5    7    1         0.2969031667E+01      0.8365694577E+01
          0                 2           2             5    7     1      -0.5434526477E-02       5    7    1        -0.2969008367E+00      0.8365278027E+00
          0                 3           2             5    7     1       0.3700714843E-03       5    7    1         0.2078309184E-01      0.5855436992E-01
          0                 4           1             5    7     1      -0.1472549024E-04       5    7    1        -0.8500295257E-03      0.2394720471E-02

    ------------------------------------------------
       NWT REQUIRED            4 OUTER ITERATIONS 
       AND A TOTAL OF          7 INNER ITERATIONS.
    ------------------------------------------------

 NO OUTPUT CONTROL FOR STRESS PERIOD   46   TIME STEP    7
 
 SOLVING FOR HEAD 
                                                   Max.-Head-Change                         Max.-Flux-Residual
  Residual-Control   Outer-Iter.   Inner-Iter.     Column Row Layer    Maximum-Head-Change  Column Row Layer    Maximum-Flux-Residual          L2-NORM 
          0                 1           2             5    7     1       0.5463302720E-01       5    7    1         0.2903519873E+01      0.8132781675E+01
          0                 2           2             5    7     1      -0.5314275076E-02       5    7    1        -0.2903500358E+00      0.8132408775E+00
          0                 3           2             5    7     1       0.3618827550E-03       5    7    1         0.2032453200E-01      0.5692457096E-01
          0                 4           1             5    7     1      -0.1439965358E-04       5    7    1        -0.8312744162E-03      0.2328006618E-02

    ------------------------------------------------
       NWT REQUIRED            4 OUTER ITERATIONS 
       AND A TOTAL OF          7 INNER ITERATIONS.
    ------------------------------------------------

 NO OUTPUT CONTROL FOR STRESS PERIOD   46   TIME STEP    8
 
 SOLVING FOR HEAD 
                                                   Max.-Head-Change                         Max.-Flux-Residual
  Residual-Control   Outer-Iter.   Inner-Iter.     Column Row Layer    Maximum-Head-Change  Column Row Layer    Maximum-Flux-Residual          L2-NORM 
          0                 1           2             5    7     1       0.5342180032E-01       5    7    1         0.2839274002E+01      0.7911139061E+01
          0                 2           2             5    7     1      -0.5196460630E-02       5    7    1        -0.2839257796E+00      0.7910805400E+00
          0                 3           2             5    7     1       0.3538599801E-03       5    7    1         0.1987483075E-01      0.5537343037E-01
          0                 4           1             5    7     1      -0.1408042017E-04       5    7    1        -0.8128816241E-03      0.2264523835E-02

    ------------------------------------------------
       NWT REQUIRED            4 OUTER ITERATIONS 
       AND A TOTAL OF          7 INNER ITERATIONS.
    ------------------------------------------------

 NO OUTPUT CONTROL FOR STRESS PERIOD   46   TIME STEP    9
 
 SOLVING FOR HEAD 
                                                   Max.-Head-Change                         Max.-Flux-Residual
  Residual-Control   Outer-Iter.   Inner-Iter.     Column Row Layer    Maximum-Head-Change  Column Row Layer    Maximum-Flux-Residual          L2-NORM 
          0                 1           2             4    7     1       0.5242441350E-01       5    7    1         0.2776319371E+01      0.7700019755E+01
          0                 2           2             4    7     1      -0.5099461605E-02       5    7    1        -0.2776306057E+00      0.7699720273E+00
          0                 3           2             4    7     1       0.3472545158E-03       5    7    1         0.1943416563E-01      0.5389620288E-01
          0                 4           1             4    7     1      -0.1381758155E-04       5    7    1        -0.7948584143E-03      0.2204097912E-02

    ------------------------------------------------
       NWT REQUIRED            4 OUTER ITERATIONS 
       AND A TOTAL OF          7 INNER ITERATIONS.
    ------------------------------------------------

 NO OUTPUT CONTROL FOR STRESS PERIOD   46   TIME STEP   10
 
 SOLVING FOR HEAD 
                                                   Max.-Head-Change                         Max.-Flux-Residual
  Residual-Control   Outer-Iter.   Inner-Iter.     Column Row Layer    Maximum-Head-Change  Column Row Layer    Maximum-Flux-Residual          L2-NORM 
          0                 1           2             4    7     1       0.5198588732E-01       4    7    1         0.2723785346E+01      0.7498716004E+01
          0                 2           2             4    7     1      -0.5056809172E-02       4    7    1        -0.2723785516E+00      0.7498447131E+00
          0                 3           2             4    7     1       0.3443500017E-03       4    7    1         0.1906650894E-01      0.5248744412E-01
          0                 4           1             4    7     1      -0.1370200806E-04       4    7    1        -0.7798212780E-03      0.2146616251E-02

    ------------------------------------------------
       NWT REQUIRED            4 OUTER ITERATIONS 
       AND A TOTAL OF          7 INNER ITERATIONS.
    ------------------------------------------------

 NO OUTPUT CONTROL FOR STRESS PERIOD   46   TIME STEP   11
 
 SOLVING FOR HEAD 
                                                   Max.-Head-Change                         Max.-Flux-Residual
  Residual-Control   Outer-Iter.   Inner-Iter.     Column Row Layer    Maximum-Head-Change  Column Row Layer    Maximum-Flux-Residual          L2-NORM 
          0                 1           2             4    7     1       0.5152216329E-01       4    7    1         0.2701012489E+01      0.7306598757E+01
          0                 2           2             4    7     1      -0.5011705209E-02       4    7    1        -0.2701015133E+00      0.7306357479E+00
          0                 3           2             4    7     1       0.3412785529E-03       4    7    1         0.1890711385E-01      0.5114299837E-01
          0                 4           1             4    7     1      -0.1357979298E-04       4    7    1        -0.7733020409E-03      0.2091651058E-02

    ------------------------------------------------
       NWT REQUIRED            4 OUTER ITERATIONS 
       AND A TOTAL OF          7 INNER ITERATIONS.
    ------------------------------------------------

 NO OUTPUT CONTROL FOR STRESS PERIOD   46   TIME STEP   12
 
 SOLVING FOR HEAD 
                                                   Max.-Head-Change                         Max.-Flux-Residual
  Residual-Control   Outer-Iter.   Inner-Iter.     Column Row Layer    Maximum-Head-Change  Column Row Layer    Maximum-Flux-Residual          L2-NORM 
          0                 1           2             4    7     1       0.5103538821E-01       4    7    1         0.2676911548E+01      0.7123060850E+01
          0                 2           2             4    7     1      -0.4964358582E-02       4    7    1        -0.2676916383E+00      0.7122843768E+00
          0                 3           2             4    7     1       0.3380543906E-03       4    7    1         0.1873842045E-01      0.4985856654E-01
          0                 4           1             4    7     1      -0.1345150065E-04       4    7    1        -0.7664024788E-03      0.2039140430E-02

    ------------------------------------------------
       NWT REQUIRED            4 OUTER ITERATIONS 
       AND A TOTAL OF          7 INNER ITERATIONS.
    ------------------------------------------------

 NO OUTPUT CONTROL FOR STRESS PERIOD   46   TIME STEP   13
 
 SOLVING FOR HEAD 
                                                   Max.-Head-Change                         Max.-Flux-Residual
  Residual-Control   Outer-Iter.   Inner-Iter.     Column Row Layer    Maximum-Head-Change  Column Row Layer    Maximum-Flux-Residual          L2-NORM 
          0                 1           2             4    7     1       0.5052810225E-01       4    7    1         0.2651622632E+01      0.6947560567E+01
          0                 2           2             4    7     1      -0.4915016420E-02       4    7    1        -0.2651629403E+00      0.6947365656E+00
          0                 3           2             4    7     1       0.3346943436E-03       4    7    1         0.1856140968E-01      0.4863036515E-01
          0                 4           1             4    7     1      -0.1331780147E-04       4    7    1        -0.7591627436E-03      0.1988891923E-02

    ------------------------------------------------
       NWT REQUIRED            4 OUTER ITERATIONS 
       AND A TOTAL OF          7 INNER ITERATIONS.
    ------------------------------------------------

 NO OUTPUT CONTROL FOR STRESS PERIOD   46   TIME STEP   14
 
 SOLVING FOR HEAD 
                                                   Max.-Head-Change                         Max.-Flux-Residual
  Residual-Control   Outer-Iter.   Inner-Iter.     Column Row Layer    Maximum-Head-Change  Column Row Layer    Maximum-Flux-Residual          L2-NORM 
          0                 1           2             4    7     1       0.5000255464E-01       4    7    1         0.2625270245E+01      0.6779600201E+01
          0                 2           2             4    7     1      -0.4863897548E-02       4    7    1        -0.2625278718E+00      0.6779424507E+00
          0                 3           2             4    7     1       0.3312133127E-03       4    7    1         0.1837695320E-01      0.4745487102E-01
          0                 4           1             4    7     1      -0.1317928777E-04       4    7    1        -0.7516184558E-03      0.1940818932E-02

    ------------------------------------------------
       NWT REQUIRED            4 OUTER ITERATIONS 
       AND A TOTAL OF          7 INNER ITERATIONS.
    ------------------------------------------------

 NO OUTPUT CONTROL FOR STRESS PERIOD   46   TIME STEP   15
 
 SOLVING FOR HEAD 
                                                   Max.-Head-Change                         Max.-Flux-Residual
  Residual-Control   Outer-Iter.   Inner-Iter.     Column Row Layer    Maximum-Head-Change  Column Row Layer    Maximum-Flux-Residual          L2-NORM 
          0                 1           2             4    7     1       0.4946071293E-01       4    7    1         0.2597963801E+01      0.6618708401E+01
          0                 2           2             4    7     1      -0.4811193386E-02       4    7    1        -0.2597973766E+00      0.6618549630E+00
          0                 3           2             4    7     1       0.3276243329E-03       4    7    1         0.1818581705E-01      0.4632881956E-01
          0                 4           1             4    7     1      -0.1303647935E-04       4    7    1        -0.7438009961E-03      0.1894792462E-02

    ------------------------------------------------
       NWT REQUIRED            4 OUTER ITERATIONS 
       AND A TOTAL OF          7 INNER ITERATIONS.
    ------------------------------------------------

 NO OUTPUT CONTROL FOR STRESS PERIOD   46   TIME STEP   16
 
 SOLVING FOR HEAD 
                                                   Max.-Head-Change                         Max.-Flux-Residual
  Residual-Control   Outer-Iter.   Inner-Iter.     Column Row Layer    Maximum-Head-Change  Column Row Layer    Maximum-Flux-Residual          L2-NORM 
          0                 1           2             4    7     1       0.4890441770E-01       4    7    1         0.2569805312E+01      0.6464451076E+01
          0                 2           2             4    7     1      -0.4757083004E-02       4    7    1        -0.2569816578E+00      0.6464308354E+00
          0                 3           2             4    7     1       0.3239395969E-03       4    7    1         0.1798871542E-01      0.4524927625E-01
          0                 4           1             4    7     1      -0.1288985986E-04       4    7    1        -0.7357395164E-03      0.1850635851E-02

    ------------------------------------------------
       NWT REQUIRED            4 OUTER ITERATIONS 
       AND A TOTAL OF          7 INNER ITERATIONS.
    ------------------------------------------------

 NO OUTPUT CONTROL FOR STRESS PERIOD   46   TIME STEP   17
 
 SOLVING FOR HEAD 
                                                   Max.-Head-Change                         Max.-Flux-Residual
  Residual-Control   Outer-Iter.   Inner-Iter.     Column Row Layer    Maximum-Head-Change  Column Row Layer    Maximum-Flux-Residual          L2-NORM 
          0                 1           2             4    7     1       0.4833578052E-01       4    7    1         0.2540911824E+01      0.6316440413E+01
          0                 2           2             4    7     1      -0.4701771825E-02       4    7    1        -0.2540924217E+00      0.6316311535E+00
          0                 3           2             4    7     1       0.3201730940E-03       4    7    1         0.1778646773E-01      0.4421337677E-01
          0                 4           1             4    7     1      -0.1273998768E-04       4    7    1        -0.7274675927E-03      0.1808280802E-02

    ------------------------------------------------
       NWT REQUIRED            4 OUTER ITERATIONS 
       AND A TOTAL OF          7 INNER ITERATIONS.
    ------------------------------------------------

 NO OUTPUT CONTROL FOR STRESS PERIOD   46   TIME STEP   18
 
 SOLVING FOR HEAD 
                                                   Max.-Head-Change                         Max.-Flux-Residual
  Residual-Control   Outer-Iter.   Inner-Iter.     Column Row Layer    Maximum-Head-Change  Column Row Layer    Maximum-Flux-Residual          L2-NORM 
          0                 1           2             4    7     1       0.4775624419E-01       4    7    1         0.2511363999E+01      0.6174306515E+01
          0                 2           2             4    7     1      -0.4645400222E-02       4    7    1        -0.2511377362E+00      0.6174190208E+00
          0                 3           2             4    7     1       0.3163343823E-03       4    7    1         0.1757963874E-01      0.4321859068E-01
          0                 4           1             4    7     1      -0.1258724144E-04       4    7    1        -0.7190082774E-03      0.1767608076E-02

    ------------------------------------------------
       NWT REQUIRED            4 OUTER ITERATIONS 
       AND A TOTAL OF          7 INNER ITERATIONS.
    ------------------------------------------------

 NO OUTPUT CONTROL FOR STRESS PERIOD   46   TIME STEP   19
 
 SOLVING FOR HEAD 
                                                   Max.-Head-Change                         Max.-Flux-Residual
  Residual-Control   Outer-Iter.   Inner-Iter.     Column Row Layer    Maximum-Head-Change  Column Row Layer    Maximum-Flux-Residual          L2-NORM 
          0                 1           2             4    7     1       0.4716741293E-01       4    7    1         0.2481251052E+01      0.6037700604E+01
          0                 2           2             4    7     1      -0.4588124261E-02       4    7    1        -0.2481265245E+00      0.6037595097E+00
          0                 3           2             4    7     1       0.3124340891E-03       4    7    1         0.1736885303E-01      0.4226247796E-01
          0                 4           1             4    7     1      -0.1243204529E-04       4    7    1        -0.7103871237E-03      0.1728477474E-02

    ------------------------------------------------
       NWT REQUIRED            4 OUTER ITERATIONS 
       AND A TOTAL OF          7 INNER ITERATIONS.
    ------------------------------------------------

 NO OUTPUT CONTROL FOR STRESS PERIOD   46   TIME STEP   20
 
 SOLVING FOR HEAD 
                                                   Max.-Head-Change                         Max.-Flux-Residual
  Residual-Control   Outer-Iter.   Inner-Iter.     Column Row Layer    Maximum-Head-Change  Column Row Layer    Maximum-Flux-Residual          L2-NORM 
          0                 1           2             4    7     1       0.4657090870E-01       4    7    1         0.2450663369E+01      0.5906309108E+01
          0                 2           2             4    7     1      -0.4530101739E-02       4    7    1        -0.2450678263E+00      0.5906213585E+00
          0                 3           2             4    7     1       0.3084829603E-03       4    7    1         0.1715474342E-01      0.4134288277E-01
          0                 4           1             4    7     1      -0.1227482623E-04       4    7    1        -0.7016300435E-03      0.1690875093E-02

    ------------------------------------------------
       NWT REQUIRED            4 OUTER ITERATIONS 
       AND A TOTAL OF          7 INNER ITERATIONS.
    ------------------------------------------------

 NO OUTPUT CONTROL FOR STRESS PERIOD   46   TIME STEP   21
 
 SOLVING FOR HEAD 
                                                   Max.-Head-Change                         Max.-Flux-Residual
  Residual-Control   Outer-Iter.   Inner-Iter.     Column Row Layer    Maximum-Head-Change  Column Row Layer    Maximum-Flux-Residual          L2-NORM 
          0                 1           2             4    7     1       0.4596784602E-01       4    7    1         0.2419663422E+01      0.5779843296E+01
          0                 2           2             4    7     1      -0.4471441086E-02       4    7    1        -0.2419678902E+00      0.5779756574E+00
          0                 3           2             4    7     1       0.3044883787E-03       4    7    1         0.1693774725E-01      0.4045772513E-01
          0                 4           1             4    7     1      -0.1211587819E-04       4    7    1        -0.6927548886E-03      0.1654683818E-02

    ------------------------------------------------
       NWT REQUIRED            4 OUTER ITERATIONS 
       AND A TOTAL OF          7 INNER ITERATIONS.
    ------------------------------------------------

 NO OUTPUT CONTROL FOR STRESS PERIOD   46   TIME STEP   22
 
 SOLVING FOR HEAD 
                                                   Max.-Head-Change                         Max.-Flux-Residual
  Residual-Control   Outer-Iter.   Inner-Iter.     Column Row Layer    Maximum-Head-Change  Column Row Layer    Maximum-Flux-Residual          L2-NORM 
          0                 1           2             4    7     1       0.4535978160E-01       4    7    1         0.2388337830E+01      0.5658031066E+01
          0                 2           2             4    7     1      -0.4412293745E-02       4    7    1        -0.2388353794E+00      0.5657952472E+00
          0                 3           2             4    7     1       0.3004606567E-03       4    7    1         0.1671847094E-01      0.3960516777E-01
          0                 4           1             4    7     1      -0.1195561148E-04       4    7    1        -0.6837864862E-03      0.1619834667E-02

    ------------------------------------------------
       NWT REQUIRED            4 OUTER ITERATIONS 
       AND A TOTAL OF          7 INNER ITERATIONS.
    ------------------------------------------------

 NO OUTPUT CONTROL FOR STRESS PERIOD   46   TIME STEP   23
 
 SOLVING FOR HEAD 
                                                   Max.-Head-Change                         Max.-Flux-Residual
  Residual-Control   Outer-Iter.   Inner-Iter.     Column Row Layer    Maximum-Head-Change  Column Row Layer    Maximum-Flux-Residual          L2-NORM 
          0                 1           2             4    7     1       0.4474763359E-01       4    7    1         0.2356738472E+01      0.5540611019E+01
          0                 2           2             4    7     1      -0.4352749042E-02       4    7    1        -0.2356754826E+00      0.5540539015E+00
          0                 3           2             4    7     1       0.2964058772E-03       4    7    1         0.1649727771E-01      0.3878332487E-01
          0                 4           1             4    7     1      -0.1179426786E-04       4    7    1        -0.6747396519E-03      0.1586236995E-02

    ------------------------------------------------
       NWT REQUIRED            4 OUTER ITERATIONS 
       AND A TOTAL OF          7 INNER ITERATIONS.
    ------------------------------------------------

 NO OUTPUT CONTROL FOR STRESS PERIOD   46   TIME STEP   24
 
 SOLVING FOR HEAD 
                                                   Max.-Head-Change                         Max.-Flux-Residual
  Residual-Control   Outer-Iter.   Inner-Iter.     Column Row Layer    Maximum-Head-Change  Column Row Layer    Maximum-Flux-Residual          L2-NORM 
          0                 1           2             4    7     1       0.4413277554E-01       4    7    1         0.2324941790E+01      0.5427356690E+01
          0                 2           2             4    7     1      -0.4292940601E-02       4    7    1        -0.2324958451E+00      0.5427291711E+00
          0                 3           2             4    7     1       0.2923331390E-03       4    7    1         0.1627470267E-01      0.3799062674E-01
          0                 4           1             4    7     1      -0.1163220987E-04       4    7    1        -0.6656363289E-03      0.1553792715E-02

    ------------------------------------------------
       NWT REQUIRED            4 OUTER ITERATIONS 
       AND A TOTAL OF          7 INNER ITERATIONS.
    ------------------------------------------------

 NO OUTPUT CONTROL FOR STRESS PERIOD   46   TIME STEP   25
 
 SOLVING FOR HEAD 
                                                   Max.-Head-Change                         Max.-Flux-Residual
  Residual-Control   Outer-Iter.   Inner-Iter.     Column Row Layer    Maximum-Head-Change  Column Row Layer    Maximum-Flux-Residual          L2-NORM 
          0                 1           2             4    7     1       0.4351595152E-01       4    7    1         0.2292990160E+01      0.5318048203E+01
          0                 2           2             4    7     1      -0.4232940813E-02       4    7    1        -0.2293007054E+00      0.5317988820E+00
          0                 3           2             4    7     1       0.2882473723E-03       4    7    1         0.1605104257E-01      0.3722550905E-01
          0                 4           1             4    7     1      -0.1146963347E-04       4    7    1        -0.6564886230E-03      0.1522505795E-02

    ------------------------------------------------
       NWT REQUIRED            4 OUTER ITERATIONS 
       AND A TOTAL OF          7 INNER ITERATIONS.
    ------------------------------------------------

 NO OUTPUT CONTROL FOR STRESS PERIOD   46   TIME STEP   26
 
 SOLVING FOR HEAD 
                                                   Max.-Head-Change                         Max.-Flux-Residual
  Residual-Control   Outer-Iter.   Inner-Iter.     Column Row Layer    Maximum-Head-Change  Column Row Layer    Maximum-Flux-Residual          L2-NORM 
          0                 1           2             4    7     1       0.4289824033E-01       4    7    1         0.2260943795E+01      0.5212480506E+01
          0                 2           2             4    7     1      -0.4172854627E-02       4    7    1        -0.2260960854E+00      0.5212426274E+00
          0                 3           2             4    7     1       0.2841557236E-03       4    7    1         0.1582671894E-01      0.3648661116E-01
          0                 4           1             4    7     1      -0.1130682289E-04       4    7    1        -0.6473137723E-03      0.1492270880E-02

    ------------------------------------------------
       NWT REQUIRED            4 OUTER ITERATIONS 
       AND A TOTAL OF          7 INNER ITERATIONS.
    ------------------------------------------------

 NO OUTPUT CONTROL FOR STRESS PERIOD   46   TIME STEP   27
 
 SOLVING FOR HEAD 
                                                   Max.-Head-Change                         Max.-Flux-Residual
  Residual-Control   Outer-Iter.   Inner-Iter.     Column Row Layer    Maximum-Head-Change  Column Row Layer    Maximum-Flux-Residual          L2-NORM 
          0                 1           2             4    7     1       0.4228050458E-01       4    7    1         0.2228851416E+01      0.5110460167E+01
          0                 2           2             4    7     1      -0.4112765962E-02       4    7    1        -0.2228868581E+00      0.5110406833E+00
          0                 3           2             4    7     1       0.2800639066E-03       4    7    1         0.1560207284E-01      0.3577249442E-01
          0                 4           1             4    7     1      -0.1114400576E-04       4    7    1        -0.6381257353E-03      0.1463053549E-02

    ------------------------------------------------
       NWT REQUIRED            4 OUTER ITERATIONS 
       AND A TOTAL OF          7 INNER ITERATIONS.
    ------------------------------------------------

 NO OUTPUT CONTROL FOR STRESS PERIOD   46   TIME STEP   28
 
 SOLVING FOR HEAD 
                                                   Max.-Head-Change                         Max.-Flux-Residual
  Residual-Control   Outer-Iter.   Inner-Iter.     Column Row Layer    Maximum-Head-Change  Column Row Layer    Maximum-Flux-Residual          L2-NORM 
          0                 1           2             4    7     1       0.4166353574E-01       4    7    1         0.2196757750E+01      0.5011815476E+01
          0                 2           2             4    7     1      -0.4052751818E-02       4    7    1        -0.2196774969E+00      0.5011769973E+00
          0                 3           2             4    7     1       0.2759771644E-03       4    7    1         0.1537741739E-01      0.3508206939E-01
          0                 4           1             4    7     1      -0.1098139021E-04       4    7    1        -0.6289373018E-03      0.1434847843E-02

    ------------------------------------------------
       NWT REQUIRED            4 OUTER ITERATIONS 
       AND A TOTAL OF          7 INNER ITERATIONS.
    ------------------------------------------------

 NO OUTPUT CONTROL FOR STRESS PERIOD   46   TIME STEP   29
 
 SOLVING FOR HEAD 
                                                   Max.-Head-Change                         Max.-Flux-Residual
  Residual-Control   Outer-Iter.   Inner-Iter.     Column Row Layer    Maximum-Head-Change  Column Row Layer    Maximum-Flux-Residual          L2-NORM 
          0                 1           2             4    7     1       0.4104806341E-01       4    7    1         0.2164703834E+01      0.4916377947E+01
          0                 2           2             4    7     1      -0.3992883173E-02       4    7    1        -0.2164721060E+00      0.4916336064E+00
          0                 3           2             4    7     1       0.2719003315E-03       4    7    1         0.1515303991E-01      0.3441404271E-01
          0                 4           1             4    7     1      -0.1081916966E-04       4    7    1        -0.6197602718E-03      0.1407506094E-02

    ------------------------------------------------
       NWT REQUIRED            4 OUTER ITERATIONS 
       AND A TOTAL OF          7 INNER ITERATIONS.
    ------------------------------------------------

 NO OUTPUT CONTROL FOR STRESS PERIOD   46   TIME STEP   30



 STREAM LISTING     PERIOD     46   STEP       30

 LAYER ROW COL. STREAM  RCH.  FLOW INTO     FLOW TO   FLOW OUT OF   OVRLND.     DIRECT     STREAM       STREAM     STREAM     STREAM   STREAMBED  STREAMBED
                SEG.NO.  NO.  STRM. RCH.    AQUIFER    STRM. RCH.    RUNOFF     PRECIP       ET          HEAD       DEPTH      WIDTH   CONDCTNC.   GRADIENT

   1    1    1     1     1    1.8749E+01  2.1264E-01   1.8537E+01  0.000E+00  0.000E+00  0.000E+00  1.09413E+03  1.078E+00  1.159E+01  5.215E-02  1.359E+00
   1    2    2     1     2    1.8537E+01  3.2801E-01   1.8209E+01  0.000E+00  0.000E+00  0.000E+00  1.08913E+03  1.073E+00  1.150E+01  8.053E-02  1.358E+00
   1    3    3     1     3    1.8209E+01  2.7848E-01   1.7930E+01  0.000E+00  0.000E+00  0.000E+00  1.08349E+03  1.068E+00  1.141E+01  6.845E-02  1.356E+00
   1    3    4     1     4    1.7930E+01  2.5541E-01   1.7675E+01  0.000E+00  0.000E+00  0.000E+00  1.07847E+03  1.064E+00  1.132E+01  6.285E-02  1.355E+00
   1    4    5     2     1    1.5675E+01  3.0476E-01   1.5370E+01  0.000E+00  0.000E+00  0.000E+00  1.07284E+03  9.072E-01  1.200E+01  7.800E-02  1.302E+00
   1    5    6     2     2    1.5370E+01  2.3387E-01   1.5136E+01  0.000E+00  0.000E+00  0.000E+00  1.06741E+03  8.978E-01  1.200E+01  6.000E-02  1.299E+00
   1    6    6     2     3    1.5136E+01  2.3337E-01   1.4903E+01  0.000E+00  0.000E+00  0.000E+00  1.06268E+03  8.895E-01  1.200E+01  6.000E-02  1.296E+00
   1    7    6     2     4    1.4903E+01  2.3287E-01   1.4670E+01  0.000E+00  0.000E+00  0.000E+00  1.05796E+03  8.812E-01  1.200E+01  6.000E-02  1.294E+00
   1    8    6     2     5    1.4670E+01  2.3237E-01   1.4438E+01  0.000E+00  0.000E+00  0.000E+00  1.05323E+03  8.728E-01  1.200E+01  6.000E-02  1.291E+00
   1    3    5     3     1    2.0000E+00  2.8252E-01   1.7175E+00  0.000E+00  0.000E+00  0.000E+00  1.07555E+03  1.909E+00  9.636E+00  7.227E-02  1.955E+00
   1    3    6     3     2    1.7175E+00  2.4905E-01   1.4684E+00  0.000E+00  0.000E+00  0.000E+00  1.07264E+03  1.727E+00  8.909E+00  6.682E-02  1.864E+00
   1    3    7     3     3    1.4684E+00  1.9718E-01   1.2712E+00  0.000E+00  0.000E+00  0.000E+00  1.06987E+03  1.555E+00  8.218E+00  5.547E-02  1.777E+00
   1    4    8     3     4    1.2712E+00  2.2567E-01   1.0456E+00  0.000E+00  0.000E+00  0.000E+00  1.06682E+03  1.364E+00  7.455E+00  6.709E-02  1.682E+00
   1    5    8     3     5    1.0456E+00  1.5790E-01   8.8768E-01  0.000E+00  0.000E+00  0.000E+00  1.06362E+03  1.164E+00  6.655E+00  4.991E-02  1.582E+00
   1    6    8     3     6    8.8768E-01  5.5980E-02   8.3170E-01  0.000E+00  0.000E+00  0.000E+00  1.06158E+03  1.036E+00  6.145E+00  1.844E-02  1.518E+00
   1    5   10     4     1    1.0000E+01  9.0919E-02   9.9091E+00  0.000E+00  0.000E+00  0.000E+00  1.07836E+03  6.368E-01  1.000E+01  2.500E-02  1.212E+00
   1    5    9     4     2    9.9091E+00  1.8158E-01   9.7275E+00  0.000E+00  0.000E+00  0.000E+00  1.07154E+03  6.315E-01  1.000E+01  5.000E-02  1.211E+00
   1    6    8     4     3    9.7275E+00  1.2689E-01   9.6006E+00  0.000E+00  0.000E+00  0.000E+00  1.06381E+03  6.256E-01  1.000E+01  3.500E-02  1.209E+00
   1    6    8     5     1    1.0432E+01  2.2686E-01   1.0205E+01  0.000E+00  0.000E+00  0.000E+00  1.05868E+03  6.790E-01  1.542E+01  6.166E-02  1.226E+00
   1    7    7     5     2    1.0205E+01  2.7894E-01   9.9265E+00  0.000E+00  0.000E+00  0.000E+00  1.05417E+03  6.732E-01  1.519E+01  7.594E-02  1.224E+00
   1    8    7     5     3    9.9265E+00  1.9221E-01   9.7343E+00  0.000E+00  0.000E+00  0.000E+00  1.04992E+03  6.676E-01  1.497E+01  5.241E-02  1.223E+00
   1    8    6     5     4    9.7343E+00  1.3577E-01   9.5985E+00  0.000E+00  0.000E+00  0.000E+00  1.04691E+03  6.637E-01  1.482E+01  3.706E-02  1.221E+00
   1    9    6     6     1    2.4036E+01  2.5133E-01   2.3785E+01  0.000E+00  0.000E+00  0.000E+00  1.04392E+03  1.189E+00  1.200E+01  6.000E-02  1.396E+00
   1   10    7     6     2    2.3785E+01  2.5088E-01   2.3534E+01  0.000E+00  0.000E+00  0.000E+00  1.03936E+03  1.181E+00  1.200E+01  6.000E-02  1.394E+00
   1   11    7     6     3    2.3534E+01  2.5043E-01   2.3284E+01  0.000E+00  0.000E+00  0.000E+00  1.03481E+03  1.174E+00  1.200E+01  6.000E-02  1.391E+00
   1   12    7     6     4    2.3284E+01  2.4998E-01   2.3034E+01  0.000E+00  0.000E+00  0.000E+00  1.03026E+03  1.166E+00  1.200E+01  6.000E-02  1.389E+00
   1   13    7     6     5    2.3034E+01  1.1002E-02   2.3023E+01  0.000E+00  0.000E+00  0.000E+00  1.02707E+03  1.162E+00  1.200E+01  2.400E-02  1.528E-01
   1   14    9     7     1    1.5000E+02  1.3784E+00   1.4862E+02  0.000E+00  0.000E+00  0.000E+00  1.03987E+03  2.288E+00  5.529E+01  5.593E-01  8.215E-01
   1   13    8     7     2    1.4862E+02  1.9814E+00   1.4664E+02  0.000E+00  0.000E+00  0.000E+00  1.03478E+03  2.279E+00  5.525E+01  6.147E-01  1.074E+00
   1   13    7     7     3    1.4664E+02  1.7171E+00   1.4492E+02  0.000E+00  0.000E+00  0.000E+00  1.02969E+03  2.269E+00  5.521E+01  5.584E-01  1.025E+00
   1   13    6     8     1    1.6795E+02  1.1421E+00   1.6680E+02  0.000E+00  0.000E+00  0.000E+00  1.02481E+03  2.935E+00  4.256E+01  4.337E-01  8.778E-01
   1   13    5     8     2    1.6680E+02  3.7713E-01   1.6643E+02  0.000E+00  0.000E+00  0.000E+00  1.01855E+03  2.930E+00  4.249E+01  4.329E-01  2.904E-01
   1   13    4     8     3    1.6643E+02 -1.7631E+00   1.6819E+02  0.000E+00  0.000E+00  0.000E+00  1.01231E+03  2.935E+00  4.255E+01  4.336E+00 -1.355E-01
   1   13    3     8     4    1.6819E+02 -3.3339E+00   1.7152E+02  0.000E+00  0.000E+00  0.000E+00  1.00608E+03  2.951E+00  4.279E+01  4.361E+00 -2.548E-01
   1   13    2     8     5    1.7152E+02 -2.5209E+00   1.7404E+02  0.000E+00  0.000E+00  0.000E+00  9.99845E+02  2.970E+00  4.307E+01  4.389E+00 -1.915E-01
   1   13    1     8     6    1.7404E+02 -1.9966E+00   1.7604E+02  0.000E+00  0.000E+00  0.000E+00  9.94860E+02  2.985E+00  4.328E+01  2.646E+00 -2.515E-01
   1    8    6     9     1    0.0000E+00  0.0000E+00   0.0000E+00  0.000E+00  0.000E+00  0.000E+00  1.07875E+03  0.000E+00  4.000E+00  0.000E+00  1.000E+00
   1    8    5     9     2    0.0000E+00  0.0000E+00   0.0000E+00  0.000E+00  0.000E+00  0.000E+00  1.07825E+03  0.000E+00  4.000E+00  0.000E+00  1.000E+00





UNSATURATED ZONE PACKAGE VOLUMETRIC BUDGET FOR  TIME STEP    30 STRESS PERIOD   46
  ------------------------------------------------------------------------------



     CUMULATIVE VOLUMES      L**3       RATES FOR THIS TIME STEP      L**3/T
     ------------------                 ------------------------

           IN:                                      IN:
           ---                                      ---
        INFILTRATION =  1698258128.3849          INFILTRATION =          12.0675

          OUT:                                     OUT:
          ----                                     ----
              UZF ET =  1697432563.3969                UZF ET =          12.0675
        UZF RECHARGE =       73224.0000          UZF RECHARGE =       0.0000E+00

            IN - OUT =      752340.9881              IN - OUT =       0.0000E+00

          STORAGE:                                 STORAGE:
          --------                                 --------
      STORAGE CHANGE =      752341.1376        STORAGE CHANGE =       1.6599E-16

 PERCENT DISCREPANCY IS DIFFERENCE BETWEEN IN-OUT MINUS CHANGE IN STORAGE
 DIVIDED BY THE AVERAGE OF IN AND OUT TIMES 100

 PERCENT DISCREPANCY =           0.00     PERCENT DISCREPANCY =           0.00






1
  VOLUMETRIC BUDGET FOR AGRICULTURAL FIELDS AT  END OF TIME STEP   30, STRESS PERIOD  46
  ------------------------------------------------------------------------------

     CUMULATIVE VOLUMES      L**3       RATES FOR THIS TIME STEP      L**3/T
     ------------------                 ------------------------

           IN:                                      IN:
           ---                                      ---
               AG WELLS  =  1597881984.0000                 AG WELLS  =          11.2200
      DIVERSION SEGMENTS =           0.0000        DIVERSION SEGMENTS =           0.0000
       IRRIGATION PONDS  =           0.0000         IRRIGATION PONDS  =           0.0000
           GW IRRIGATION =           0.0000             GW IRRIGATION =           0.0000
           SW IRRIGATION =           0.0000             SW IRRIGATION =           0.0000
        SYSTEM LOSSES GW =           0.0000          SYSTEM LOSSES GW =           0.0000
        SYSTEM LOSSES SW =           0.0000          SYSTEM LOSSES SW =           0.0000

                TOTAL IN =  1597881984.0000                  TOTAL IN =          11.2200

          OUT:                                     OUT:
          ----                                     ----
               AG WELLS  =           0.0000                 AG WELLS  =           0.0000
      DIVERSION SEGMENTS =           0.0000        DIVERSION SEGMENTS =           0.0000
       IRRIGATION PONDS  =           0.0000         IRRIGATION PONDS  =           0.0000
           GW IRRIGATION =  1597881984.0000             GW IRRIGATION =          11.2200
           SW IRRIGATION =           0.0000             SW IRRIGATION =           0.0000
        SYSTEM LOSSES GW =           0.0000          SYSTEM LOSSES GW =           0.0000
        SYSTEM LOSSES SW =           0.0000          SYSTEM LOSSES SW =           0.0000

               TOTAL OUT =  1597881984.0000                 TOTAL OUT =          11.2200

                IN - OUT =           0.0000                  IN - OUT =           0.0000

     PERCENT DISCREPANCY =           0.00         PERCENT DISCREPANCY =           0.00



1
  VOLUMETRIC BUDGET FOR ENTIRE MODEL AT END OF TIME STEP   30, STRESS PERIOD  46
  ------------------------------------------------------------------------------

     CUMULATIVE VOLUMES      L**3       RATES FOR THIS TIME STEP      L**3/T
     ------------------                 ------------------------

           IN:                                      IN:
           ---                                      ---
             STORAGE     =  2093837568.0000               STORAGE     =          18.4068
       CONSTANT HEAD     =           0.0000         CONSTANT HEAD     =           0.0000
     HEAD DEP BOUNDS     =    33939360.0000       HEAD DEP BOUNDS     =           0.2887
      STREAM LEAKAGE     =  1473489664.0000        STREAM LEAKAGE     =          12.3229
        UZF RECHARGE     =       73223.9531          UZF RECHARGE     =           0.0000
               GW ET     =           0.0000                 GW ET     =           0.0000
     SURFACE LEAKAGE     =           0.0000       SURFACE LEAKAGE     =           0.0000
           AG WELLS      =           0.0000             AG WELLS      =           0.0000

                TOTAL IN =  3601339904.0000                  TOTAL IN =          31.0184

          OUT:                                     OUT:
          ----                                     ----
             STORAGE     =   765249216.0000               STORAGE     =           9.8946
       CONSTANT HEAD     =           0.0000         CONSTANT HEAD     =           0.0000
     HEAD DEP BOUNDS     =    34603436.0000       HEAD DEP BOUNDS     =           0.2893
      STREAM LEAKAGE     =  1195203200.0000        STREAM LEAKAGE     =           9.6145
        UZF RECHARGE     =           0.0000          UZF RECHARGE     =           0.0000
               GW ET     =     8413934.0000                 GW ET     =           0.0000
     SURFACE LEAKAGE     =           0.0000       SURFACE LEAKAGE     =           0.0000
           AG WELLS      =  1597881984.0000             AG WELLS      =          11.2200

               TOTAL OUT =  3601351680.0000                 TOTAL OUT =          31.0184

                IN - OUT =      -11776.0000                  IN - OUT =      -2.6703E-05

     PERCENT DISCREPANCY =          -0.00         PERCENT DISCREPANCY =          -0.00






         TIME SUMMARY AT END OF TIME STEP   30 IN STRESS PERIOD   46
                    SECONDS     MINUTES      HOURS       DAYS        YEARS
                    -----------------------------------------------------------
   TIME STEP LENGTH  87667.      1461.1      24.352      1.0147     2.77799E-03
 STRESS PERIOD TIME 2.63000E+06  43833.      730.56      30.440     8.33397E-02
         TOTAL TIME 1.18435E+08 1.97392E+06  32899.      1370.8      3.7530    
1
1
                            STRESS PERIOD NO.   47, LENGTH =   2630000.    
                            -----------------------------------------------

                              NUMBER OF TIME STEPS =    30

                               MULTIPLIER FOR DELT =     1.000

                            INITIAL TIME STEP SIZE =   87666.66    

 REUSING NON-PARAMETER GHB CELLS FROM LAST STRESS PERIOD

      2 GHB CELLS

 REUSING STREAM SEGMENT DATA FROM LAST STRESS PERIOD



            AREAL INFILTRATION RATE
 READING ON UNIT   19 WITH FORMAT: (FREE)              

            1           2           3           4           5           6           7           8           9          10
 ........................................................................................................................
   1   1.0000E-10  2.0000E-10   0.000       0.000       0.000       0.000       0.000       0.000       0.000       0.000    
   2   2.0000E-10  1.0000E-10  2.0000E-10   0.000       0.000      8.0000E-10  8.0000E-10  5.0000E-10   0.000       0.000    
   3    0.000      5.0000E-10  1.0000E-10  1.0000E-10  8.0000E-10  8.0000E-10  5.0000E-10  5.0000E-10   0.000       0.000    
   4   8.0000E-10  5.0000E-10  1.0000E-10  1.0000E-10  1.0000E-10  1.0000E-10  1.0000E-10  1.0000E-10  2.0000E-10   0.000    
   5   8.0000E-10  5.0000E-10  1.0000E-10  1.0000E-10  1.0000E-10  1.0000E-10  1.0000E-10  1.0000E-10  1.0000E-10  1.0000E-10
   6   8.0000E-10  5.0000E-10  5.0000E-10  2.0000E-10  2.0000E-10  1.0000E-10  1.0000E-10  1.0000E-10  1.0000E-10  5.0000E-10
   7   8.0000E-10  5.0000E-10  5.0000E-10  2.0000E-10  2.0000E-10  1.0000E-10  1.0000E-10  2.0000E-10  2.0000E-10   0.000    
   8    0.000      5.0000E-10  5.0000E-10  2.0000E-10  2.0000E-10  1.0000E-10  1.0000E-10  2.0000E-10  5.0000E-10   0.000    
   9    0.000      5.0000E-10  5.0000E-10  2.0000E-10  2.0000E-10  1.0000E-10  1.0000E-10  2.0000E-10  5.0000E-10   0.000    
  10    0.000      5.0000E-10  5.0000E-10  2.0000E-10  2.0000E-10  1.0000E-10  1.0000E-10  2.0000E-10  5.0000E-10  8.0000E-10
  11    0.000      1.0000E-10  1.0000E-10  1.0000E-10  1.0000E-10  1.0000E-10  1.0000E-10  2.0000E-10  5.0000E-10   0.000    
  12   1.0000E-10  1.0000E-10  1.0000E-10  1.0000E-10  1.0000E-10  1.0000E-10  1.0000E-10  1.0000E-10  2.0000E-10   0.000    
  13   1.0000E-10  1.0000E-10  2.0000E-10  2.0000E-10  2.0000E-10  2.0000E-10  2.0000E-10  1.0000E-10  1.0000E-10   0.000    
  14    0.000      2.0000E-10  5.0000E-10  5.0000E-10  5.0000E-10  5.0000E-10  5.0000E-10  2.0000E-10  1.0000E-10   0.000    
  15    0.000       0.000      8.0000E-10  8.0000E-10  8.0000E-10  8.0000E-10   0.000       0.000       0.000       0.000    

                  ET RATE =  5.000000E-09

 USING ET EXTINCTION DEPTH FROM PREVIOUS STRESS PERIOD. CURRENT PERIOD IS:      47

 USING EXTINCTION WATER CONTENT FROM PREVIOUS STRESS PERIOD. CURRENT PERIOD IS:      47

 USING AIR ENTRY PRESSURE FROM PREVIOUS STRESS PERIOD. CURRENT PERIOD IS:      47

 USING ROOT PRESSURE HEAD FROM PREVIOUS STRESS PERIOD. CURRENT PERIOD IS:      47

 USING ROOT ACTIVITY FROM PREVIOUS STRESS PERIOD. CURRENT PERIOD IS:      47

 PROCESSING AG STRESS PERIOD DATA

 READING AG STRESS PERIOD DATA

 READING IRRIGATION SEGMENT

 READING IRRIGATION WELL

 READING SUPPLEMENTAL WELL

 NO IRRPOND OR REUSING IRRPOND DATA FROM LAST STRESS PERIOD

 END PROCESSING AG STRESS PERIOD DATA OPTIONS
 
 SOLVING FOR HEAD 
                                                   Max.-Head-Change                         Max.-Flux-Residual
  Residual-Control   Outer-Iter.   Inner-Iter.     Column Row Layer    Maximum-Head-Change  Column Row Layer    Maximum-Flux-Residual          L2-NORM 
          0                 1           2             4    7     1       0.7396064235E-01       4    7    1         0.3882720290E+01      0.8725149958E+01
          0                 2           2             4    7     1      -0.7194413634E-02       4    7    1        -0.3882761173E+00      0.8725132677E+00
          0                 3           2             4    7     1       0.4899123110E-03       4    7    1         0.2717930127E-01      0.6107578953E-01
          0                 4           1             4    7     1      -0.1949407165E-04       4    7    1        -0.1111635143E-02      0.2498007471E-02

    ------------------------------------------------
       NWT REQUIRED            4 OUTER ITERATIONS 
       AND A TOTAL OF          7 INNER ITERATIONS.
    ------------------------------------------------

 NO OUTPUT CONTROL FOR STRESS PERIOD   47   TIME STEP    1
 
 SOLVING FOR HEAD 
                                                   Max.-Head-Change                         Max.-Flux-Residual
  Residual-Control   Outer-Iter.   Inner-Iter.     Column Row Layer    Maximum-Head-Change  Column Row Layer    Maximum-Flux-Residual          L2-NORM 
          0                 1           2             4    7     1       0.7318002355E-01       4    7    1         0.3842755954E+01      0.8554931022E+01
          0                 2           2             4    7     1      -0.7118482601E-02       4    7    1        -0.3842798089E+00      0.8554918314E+00
          0                 3           2             4    7     1       0.4847416705E-03       4    7    1         0.2689955838E-01      0.5988428884E-01
          0                 4           1             4    7     1      -0.1928832700E-04       4    7    1        -0.1100193644E-02      0.2449264084E-02

    ------------------------------------------------
       NWT REQUIRED            4 OUTER ITERATIONS 
       AND A TOTAL OF          7 INNER ITERATIONS.
    ------------------------------------------------

 NO OUTPUT CONTROL FOR STRESS PERIOD   47   TIME STEP    2
 
 SOLVING FOR HEAD 
                                                   Max.-Head-Change                         Max.-Flux-Residual
  Residual-Control   Outer-Iter.   Inner-Iter.     Column Row Layer    Maximum-Head-Change  Column Row Layer    Maximum-Flux-Residual          L2-NORM 
          0                 1           2             4    7     1       0.7238964939E-01       4    7    1         0.3802195992E+01      0.8391143515E+01
          0                 2           2             4    7     1      -0.7041602307E-02       4    7    1        -0.3802239159E+00      0.8391134815E+00
          0                 3           2             4    7     1       0.4795063927E-03       4    7    1         0.2661564478E-01      0.5873781099E-01
          0                 4           1             4    7     1      -0.1908001075E-04       4    7    1        -0.1088581578E-02      0.2402374230E-02

    ------------------------------------------------
       NWT REQUIRED            4 OUTER ITERATIONS 
       AND A TOTAL OF          7 INNER ITERATIONS.
    ------------------------------------------------

 NO OUTPUT CONTROL FOR STRESS PERIOD   47   TIME STEP    3
 
 SOLVING FOR HEAD 
                                                   Max.-Head-Change                         Max.-Flux-Residual
  Residual-Control   Outer-Iter.   Inner-Iter.     Column Row Layer    Maximum-Head-Change  Column Row Layer    Maximum-Flux-Residual          L2-NORM 
          0                 1           2             4    7     1       0.7159114892E-01       4    7    1         0.3761130197E+01      0.8233409764E+01
          0                 2           2             4    7     1      -0.6963931243E-02       4    7    1        -0.3761174195E+00      0.8233404656E+00
          0                 3           2             4    7     1       0.4742172687E-03       4    7    1         0.2632818912E-01      0.5763371172E-01
          0                 4           1             4    7     1      -0.1886955151E-04       4    7    1        -0.1076824621E-02      0.2357215569E-02

    ------------------------------------------------
       NWT REQUIRED            4 OUTER ITERATIONS 
       AND A TOTAL OF          7 INNER ITERATIONS.
    ------------------------------------------------

 NO OUTPUT CONTROL FOR STRESS PERIOD   47   TIME STEP    4
 
 SOLVING FOR HEAD 
                                                   Max.-Head-Change                         Max.-Flux-Residual
  Residual-Control   Outer-Iter.   Inner-Iter.     Column Row Layer    Maximum-Head-Change  Column Row Layer    Maximum-Flux-Residual          L2-NORM 
          0                 1           2             4    7     1       0.7078604109E-01       4    7    1         0.3719643035E+01      0.8081366060E+01
          0                 2           2             4    7     1      -0.6885617190E-02       4    7    1        -0.3719687681E+00      0.8081364094E+00
          0                 3           2             4    7     1       0.4688843622E-03       4    7    1         0.2603778275E-01      0.5656943040E-01
          0                 4           1             4    7     1      -0.1865735027E-04       4    7    1        -0.1064947001E-02      0.2313725103E-02

    ------------------------------------------------
       NWT REQUIRED            4 OUTER ITERATIONS 
       AND A TOTAL OF          7 INNER ITERATIONS.
    ------------------------------------------------

 NO OUTPUT CONTROL FOR STRESS PERIOD   47   TIME STEP    5
 
 SOLVING FOR HEAD 
                                                   Max.-Head-Change                         Max.-Flux-Residual
  Residual-Control   Outer-Iter.   Inner-Iter.     Column Row Layer    Maximum-Head-Change  Column Row Layer    Maximum-Flux-Residual          L2-NORM 
          0                 1           2             4    7     1       0.6997574481E-01       4    7    1         0.3677813259E+01      0.7934684079E+01
          0                 2           2             4    7     1      -0.6806798196E-02       4    7    1        -0.3677858389E+00      0.7934684858E+00
          0                 3           2             4    7     1       0.4635170739E-03       4    7    1         0.2574497713E-01      0.5554267587E-01
          0                 4           1             4    7     1      -0.1844378109E-04       4    7    1        -0.1052971239E-02      0.2271687122E-02

    ------------------------------------------------
       NWT REQUIRED            4 OUTER ITERATIONS 
       AND A TOTAL OF          7 INNER ITERATIONS.
    ------------------------------------------------

 NO OUTPUT CONTROL FOR STRESS PERIOD   47   TIME STEP    6
 
 SOLVING FOR HEAD 
                                                   Max.-Head-Change                         Max.-Flux-Residual
  Residual-Control   Outer-Iter.   Inner-Iter.     Column Row Layer    Maximum-Head-Change  Column Row Layer    Maximum-Flux-Residual          L2-NORM 
          0                 1           2             4    7     1       0.6916170658E-01       4    7    1         0.3635721659E+01      0.7795572147E+01
          0                 2           2             4    7     1      -0.6727614989E-02       4    7    1        -0.3635767124E+00      0.7795546551E+00
          0                 3           2             4    7     1       0.4581249859E-03       4    7    1         0.2545033784E-01      0.5456845642E-01
          0                 4           1             4    7     1      -0.1822922480E-04       4    7    1        -0.1040920462E-02      0.2231839152E-02

    ------------------------------------------------
       NWT REQUIRED            4 OUTER ITERATIONS 
       AND A TOTAL OF          7 INNER ITERATIONS.
    ------------------------------------------------

 NO OUTPUT CONTROL FOR STRESS PERIOD   47   TIME STEP    7
 
 SOLVING FOR HEAD 
                                                   Max.-Head-Change                         Max.-Flux-Residual
  Residual-Control   Outer-Iter.   Inner-Iter.     Column Row Layer    Maximum-Head-Change  Column Row Layer    Maximum-Flux-Residual          L2-NORM 
          0                 1           2             4    7     1       0.6834487929E-01       4    7    1         0.3593421571E+01      0.7660902274E+01
          0                 2           2             4    7     1      -0.6648160282E-02       4    7    1        -0.3593467238E+00      0.7660848935E+00
          0                 3           2             4    7     1       0.4527144116E-03       4    7    1         0.2515423831E-01      0.5362531270E-01
          0                 4           1             4    7     1      -0.1801393297E-04       4    7    1        -0.1028809977E-02      0.2193250627E-02

    ------------------------------------------------
       NWT REQUIRED            4 OUTER ITERATIONS 
       AND A TOTAL OF          7 INNER ITERATIONS.
    ------------------------------------------------

 NO OUTPUT CONTROL FOR STRESS PERIOD   47   TIME STEP    8
 
 SOLVING FOR HEAD 
                                                   Max.-Head-Change                         Max.-Flux-Residual
  Residual-Control   Outer-Iter.   Inner-Iter.     Column Row Layer    Maximum-Head-Change  Column Row Layer    Maximum-Flux-Residual          L2-NORM 
          0                 1           2             4    7     1       0.6752654679E-01       4    7    1         0.3550984065E+01      0.7528402577E+01
          0                 2           2             4    7     1      -0.6568558980E-02       4    7    1        -0.3551029811E+00      0.7528356953E+00
          0                 3           2             4    7     1       0.4472938569E-03       4    7    1         0.2485717613E-01      0.5269784733E-01
          0                 4           1             4    7     1      -0.1779824394E-04       4    7    1        -0.1016660121E-02      0.2155272290E-02

    ------------------------------------------------
       NWT REQUIRED            4 OUTER ITERATIONS 
       AND A TOTAL OF          7 INNER ITERATIONS.
    ------------------------------------------------

 NO OUTPUT CONTROL FOR STRESS PERIOD   47   TIME STEP    9
 
 SOLVING FOR HEAD 
                                                   Max.-Head-Change                         Max.-Flux-Residual
  Residual-Control   Outer-Iter.   Inner-Iter.     Column Row Layer    Maximum-Head-Change  Column Row Layer    Maximum-Flux-Residual          L2-NORM 
          0                 1           2             4    7     1       0.6670777206E-01       4    7    1         0.3508468485E+01      0.7400199841E+01
          0                 2           2             4    7     1      -0.6488914499E-02       4    7    1        -0.3508514203E+00      0.7400160969E+00
          0                 3           2             4    7     1       0.4418703633E-03       4    7    1         0.2455956678E-01      0.5180059456E-01
          0                 4           1             4    7     1      -0.1758243829E-04       4    7    1        -0.1004487882E-02      0.2118634819E-02

    ------------------------------------------------
       NWT REQUIRED            4 OUTER ITERATIONS 
       AND A TOTAL OF          7 INNER ITERATIONS.
    ------------------------------------------------

 NO OUTPUT CONTROL FOR STRESS PERIOD   47   TIME STEP   10
 
 SOLVING FOR HEAD 
                                                   Max.-Head-Change                         Max.-Flux-Residual
  Residual-Control   Outer-Iter.   Inner-Iter.     Column Row Layer    Maximum-Head-Change  Column Row Layer    Maximum-Flux-Residual          L2-NORM 
          0                 1           2             4    7     1       0.6588940607E-01       4    7    1         0.3465922721E+01      0.7276067138E+01
          0                 2           2             4    7     1      -0.6409309632E-02       4    7    1        -0.3465968313E+00      0.7276034602E+00
          0                 3           2             4    7     1       0.4364495691E-03       4    7    1         0.2426174553E-01      0.5093175152E-01
          0                 4           1             4    7     1      -0.1736673994E-04       4    7    1        -0.9923069979E-03      0.2083080529E-02

    ------------------------------------------------
       NWT REQUIRED            4 OUTER ITERATIONS 
       AND A TOTAL OF          7 INNER ITERATIONS.
    ------------------------------------------------

 NO OUTPUT CONTROL FOR STRESS PERIOD   47   TIME STEP   11
 
 SOLVING FOR HEAD 
                                                   Max.-Head-Change                         Max.-Flux-Residual
  Residual-Control   Outer-Iter.   Inner-Iter.     Column Row Layer    Maximum-Head-Change  Column Row Layer    Maximum-Flux-Residual          L2-NORM 
          0                 1           2             4    7     1       0.6507262695E-01       4    7    1         0.3423412570E+01      0.7155795414E+01
          0                 2           2             4    7     1      -0.6329858994E-02       4    7    1        -0.3423457949E+00      0.7155767925E+00
          0                 3           2             4    7     1       0.4310392775E-03       4    7    1         0.2396417306E-01      0.5008993760E-01
          0                 4           1             4    7     1      -0.1715145915E-04       4    7    1        -0.9801362314E-03      0.2048650405E-02

    ------------------------------------------------
       NWT REQUIRED            4 OUTER ITERATIONS 
       AND A TOTAL OF          7 INNER ITERATIONS.
    ------------------------------------------------

 NO OUTPUT CONTROL FOR STRESS PERIOD   47   TIME STEP   12
 
 SOLVING FOR HEAD 
                                                   Max.-Head-Change                         Max.-Flux-Residual
  Residual-Control   Outer-Iter.   Inner-Iter.     Column Row Layer    Maximum-Head-Change  Column Row Layer    Maximum-Flux-Residual          L2-NORM 
          0                 1           2             4    7     1       0.6425799889E-01       4    7    1         0.3380970213E+01      0.7039188101E+01
          0                 2           2             4    7     1      -0.6250617480E-02       4    7    1        -0.3381015302E+00      0.7039165501E+00
          0                 3           2             4    7     1       0.4256432284E-03       4    7    1         0.2366707467E-01      0.4927376372E-01
          0                 4           1             4    7     1      -0.1693674537E-04       4    7    1        -0.9679849022E-03      0.2015262324E-02

    ------------------------------------------------
       NWT REQUIRED            4 OUTER ITERATIONS 
       AND A TOTAL OF          7 INNER ITERATIONS.
    ------------------------------------------------

 NO OUTPUT CONTROL FOR STRESS PERIOD   47   TIME STEP   13
 
 SOLVING FOR HEAD 
                                                   Max.-Head-Change                         Max.-Flux-Residual
  Residual-Control   Outer-Iter.   Inner-Iter.     Column Row Layer    Maximum-Head-Change  Column Row Layer    Maximum-Flux-Residual          L2-NORM 
          0                 1           2             4    7     1       0.6344643127E-01       4    7    1         0.3338646583E+01      0.6926070665E+01
          0                 2           2             4    7     1      -0.6171673562E-02       4    7    1        -0.3338691313E+00      0.6926052034E+00
          0                 3           2             4    7     1       0.4202674452E-03       4    7    1         0.2337080696E-01      0.4848199034E-01
          0                 4           1             4    7     1      -0.1672283783E-04       4    7    1        -0.9558675265E-03      0.1982882033E-02

    ------------------------------------------------
       NWT REQUIRED            4 OUTER ITERATIONS 
       AND A TOTAL OF          7 INNER ITERATIONS.
    ------------------------------------------------

 NO OUTPUT CONTROL FOR STRESS PERIOD   47   TIME STEP   14
 
 SOLVING FOR HEAD 
                                                   Max.-Head-Change                         Max.-Flux-Residual
  Residual-Control   Outer-Iter.   Inner-Iter.     Column Row Layer    Maximum-Head-Change  Column Row Layer    Maximum-Flux-Residual          L2-NORM 
          0                 1           2             4    7     1       0.6263863084E-01       4    7    1         0.3296481603E+01      0.6816271767E+01
          0                 2           2             4    7     1      -0.6093095999E-02       4    7    1        -0.3296525915E+00      0.6816256718E+00
          0                 3           2             4    7     1       0.4149166104E-03       4    7    1         0.2307564943E-01      0.4771345774E-01
          0                 4           1             4    7     1      -0.1650992281E-04       4    7    1        -0.9437955621E-03      0.1951461256E-02

    ------------------------------------------------
       NWT REQUIRED            4 OUTER ITERATIONS 
       AND A TOTAL OF          7 INNER ITERATIONS.
    ------------------------------------------------

 NO OUTPUT CONTROL FOR STRESS PERIOD   47   TIME STEP   15
 
 SOLVING FOR HEAD 
                                                   Max.-Head-Change                         Max.-Flux-Residual
  Residual-Control   Outer-Iter.   Inner-Iter.     Column Row Layer    Maximum-Head-Change  Column Row Layer    Maximum-Flux-Residual          L2-NORM 
          0                 1           2             4    7     1       0.6183524100E-01       4    7    1         0.3254511918E+01      0.6709637181E+01
          0                 2           2             4    7     1      -0.6014947387E-02       4    7    1        -0.3254555758E+00      0.6709624883E+00
          0                 3           2             4    7     1       0.4095949864E-03       4    7    1         0.2278185866E-01      0.4696704915E-01
          0                 4           1             4    7     1      -0.1629817057E-04       4    7    1        -0.9317795088E-03      0.1920943934E-02

    ------------------------------------------------
       NWT REQUIRED            4 OUTER ITERATIONS 
       AND A TOTAL OF          7 INNER ITERATIONS.
    ------------------------------------------------

 NO OUTPUT CONTROL FOR STRESS PERIOD   47   TIME STEP   16
 
 SOLVING FOR HEAD 
                                                   Max.-Head-Change                         Max.-Flux-Residual
  Residual-Control   Outer-Iter.   Inner-Iter.     Column Row Layer    Maximum-Head-Change  Column Row Layer    Maximum-Flux-Residual          L2-NORM 
          0                 1           2             4    7     1       0.6103685396E-01       4    7    1         0.3212770888E+01      0.6606024120E+01
          0                 2           2             4    7     1      -0.5937285341E-02       4    7    1        -0.3212814209E+00      0.6606014802E+00
          0                 3           2             4    7     1       0.4043064966E-03       4    7    1         0.2248966820E-01      0.4624180906E-01
          0                 4           1             4    7     1      -0.1608773654E-04       4    7    1        -0.9198288915E-03      0.1891274863E-02

    ------------------------------------------------
       NWT REQUIRED            4 OUTER ITERATIONS 
       AND A TOTAL OF          7 INNER ITERATIONS.
    ------------------------------------------------

 NO OUTPUT CONTROL FOR STRESS PERIOD   47   TIME STEP   17
 
 SOLVING FOR HEAD 
                                                   Max.-Head-Change                         Max.-Flux-Residual
  Residual-Control   Outer-Iter.   Inner-Iter.     Column Row Layer    Maximum-Head-Change  Column Row Layer    Maximum-Flux-Residual          L2-NORM 
          0                 1           2             4    7     1       0.6024400539E-01       4    7    1         0.3171289218E+01      0.6505290022E+01
          0                 2           2             4    7     1      -0.5860161979E-02       4    7    1        -0.3171331981E+00      0.6505283014E+00
          0                 3           2             4    7     1       0.3990546896E-03       4    7    1         0.2219929300E-01      0.4553672758E-01
          0                 4           1             4    7     1      -0.1587876222E-04       4    7    1        -0.9079525385E-03      0.1862444631E-02

    ------------------------------------------------
       NWT REQUIRED            4 OUTER ITERATIONS 
       AND A TOTAL OF          7 INNER ITERATIONS.
    ------------------------------------------------

 NO OUTPUT CONTROL FOR STRESS PERIOD   47   TIME STEP   18
 
 SOLVING FOR HEAD 
                                                   Max.-Head-Change                         Max.-Flux-Residual
  Residual-Control   Outer-Iter.   Inner-Iter.     Column Row Layer    Maximum-Head-Change  Column Row Layer    Maximum-Flux-Residual          L2-NORM 
          0                 1           2             4    7     1       0.5945718126E-01       4    7    1         0.3130094682E+01      0.6407311224E+01
          0                 2           2             4    7     1      -0.5783624578E-02       4    7    1        -0.3130136852E+00      0.6407305704E+00
          0                 3           2             4    7     1       0.3938427847E-03       4    7    1         0.2191092753E-01      0.4485088730E-01
          0                 4           1             4    7     1      -0.1567137596E-04       4    7    1        -0.8961583701E-03      0.1834394203E-02

    ------------------------------------------------
       NWT REQUIRED            4 OUTER ITERATIONS 
       AND A TOTAL OF          7 INNER ITERATIONS.
    ------------------------------------------------

 NO OUTPUT CONTROL FOR STRESS PERIOD   47   TIME STEP   19
 
 SOLVING FOR HEAD 
                                                   Max.-Head-Change                         Max.-Flux-Residual
  Residual-Control   Outer-Iter.   Inner-Iter.     Column Row Layer    Maximum-Head-Change  Column Row Layer    Maximum-Flux-Residual          L2-NORM 
          0                 1           2             4    7     1       0.5867695563E-01       4    7    1         0.3089219713E+01      0.6311969305E+01
          0                 2           2             4    7     1      -0.5707728986E-02       4    7    1        -0.3089261260E+00      0.6311966025E+00
          0                 3           2             4    7     1       0.3886745850E-03       4    7    1         0.2162479883E-01      0.4418351378E-01
          0                 4           1             4    7     1      -0.1546572836E-04       4    7    1        -0.8844556928E-03      0.1807094321E-02

    ------------------------------------------------
       NWT REQUIRED            4 OUTER ITERATIONS 
       AND A TOTAL OF          7 INNER ITERATIONS.
    ------------------------------------------------

 NO OUTPUT CONTROL FOR STRESS PERIOD   47   TIME STEP   20
 
 SOLVING FOR HEAD 
                                                   Max.-Head-Change                         Max.-Flux-Residual
  Residual-Control   Outer-Iter.   Inner-Iter.     Column Row Layer    Maximum-Head-Change  Column Row Layer    Maximum-Flux-Residual          L2-NORM 
          0                 1           2             4    7     1       0.5790358843E-01       4    7    1         0.3048679607E+01      0.6219157310E+01
          0                 2           2             4    7     1      -0.5632500497E-02       4    7    1        -0.3048720506E+00      0.6219155629E+00
          0                 3           2             4    7     1       0.3835518133E-03       4    7    1         0.2134101406E-01      0.4353387745E-01
          0                 4           1             4    7     1      -0.1526188850E-04       4    7    1        -0.8728488767E-03      0.1780532589E-02

    ------------------------------------------------
       NWT REQUIRED            4 OUTER ITERATIONS 
       AND A TOTAL OF          7 INNER ITERATIONS.
    ------------------------------------------------

 NO OUTPUT CONTROL FOR STRESS PERIOD   47   TIME STEP   21
 
 SOLVING FOR HEAD 
                                                   Max.-Head-Change                         Max.-Flux-Residual
  Residual-Control   Outer-Iter.   Inner-Iter.     Column Row Layer    Maximum-Head-Change  Column Row Layer    Maximum-Flux-Residual          L2-NORM 
          0                 1           2             4    7     1       0.5713743143E-01       4    7    1         0.3008495075E+01      0.6128757283E+01
          0                 2           2             4    7     1      -0.5567058261E-02       4    7    1        -0.3014717329E+00      0.6129353621E+00
          0                 3           2             4    7     1       0.3790954084E-03       4    7    1         0.2110298957E-01      0.4290524530E-01
          0                 4           1             4    7     1      -0.1508456367E-04       4    7    1        -0.8631136536E-03      0.1754803248E-02

    ------------------------------------------------
       NWT REQUIRED            4 OUTER ITERATIONS 
       AND A TOTAL OF          7 INNER ITERATIONS.
    ------------------------------------------------

 NO OUTPUT CONTROL FOR STRESS PERIOD   47   TIME STEP   22
 
 SOLVING FOR HEAD 
                                                   Max.-Head-Change                         Max.-Flux-Residual
  Residual-Control   Outer-Iter.   Inner-Iter.     Column Row Layer    Maximum-Head-Change  Column Row Layer    Maximum-Flux-Residual          L2-NORM 
          0                 1           2             4    7     1       0.5635183011E-01       4    7    1         0.2968207341E+01      0.6040635802E+01
          0                 2           2             4    7     1      -0.5481558062E-02       4    7    1        -0.2968249250E+00      0.6040636550E+00
          0                 3           2             4    7     1       0.3732731800E-03       4    7    1         0.2077771407E-01      0.4228424319E-01
          0                 4           1             4    7     1      -0.1485289194E-04       4    7    1        -0.8498098662E-03      0.1729414512E-02

    ------------------------------------------------
       NWT REQUIRED            4 OUTER ITERATIONS 
       AND A TOTAL OF          7 INNER ITERATIONS.
    ------------------------------------------------

 NO OUTPUT CONTROL FOR STRESS PERIOD   47   TIME STEP   23
 
 SOLVING FOR HEAD 
                                                   Max.-Head-Change                         Max.-Flux-Residual
  Residual-Control   Outer-Iter.   Inner-Iter.     Column Row Layer    Maximum-Head-Change  Column Row Layer    Maximum-Flux-Residual          L2-NORM 
          0                 1           2             4    7     1       0.5558456427E-01       4    7    1         0.2927872493E+01      0.5954690213E+01
          0                 2           2             4    7     1      -0.5406980416E-02       4    7    1        -0.2927913600E+00      0.5954929013E+00
          0                 3           2             4    7     1       0.3681947300E-03       4    7    1         0.2049536518E-01      0.4168430004E-01
          0                 4           1             4    7     1      -0.1465081560E-04       4    7    1        -0.8382617821E-03      0.1704870406E-02

    ------------------------------------------------
       NWT REQUIRED            4 OUTER ITERATIONS 
       AND A TOTAL OF          7 INNER ITERATIONS.
    ------------------------------------------------

 NO OUTPUT CONTROL FOR STRESS PERIOD   47   TIME STEP   24
 
 SOLVING FOR HEAD 
                                                   Max.-Head-Change                         Max.-Flux-Residual
  Residual-Control   Outer-Iter.   Inner-Iter.     Column Row Layer    Maximum-Head-Change  Column Row Layer    Maximum-Flux-Residual          L2-NORM 
          0                 1           2             4    7     1       0.5482639401E-01       4    7    1         0.2888008399E+01      0.5870863375E+01
          0                 2           2             4    7     1      -0.5333172427E-02       4    7    1        -0.2888048705E+00      0.5870866037E+00
          0                 3           2             4    7     1       0.3631686906E-03       4    7    1         0.2021631151E-01      0.4109585531E-01
          0                 4           1             4    7     1      -0.1445082480E-04       4    7    1        -0.8268484696E-03      0.1680799888E-02

    ------------------------------------------------
       NWT REQUIRED            4 OUTER ITERATIONS 
       AND A TOTAL OF          7 INNER ITERATIONS.
    ------------------------------------------------

 NO OUTPUT CONTROL FOR STRESS PERIOD   47   TIME STEP   25
 
 SOLVING FOR HEAD 
                                                   Max.-Head-Change                         Max.-Flux-Residual
  Residual-Control   Outer-Iter.   Inner-Iter.     Column Row Layer    Maximum-Head-Change  Column Row Layer    Maximum-Flux-Residual          L2-NORM 
          0                 1           2             4    7     1       0.5407766317E-01       4    7    1         0.2848622010E+01      0.5789091297E+01
          0                 2           2             4    7     1      -0.5260340148E-02       4    7    1        -0.2848661506E+00      0.5789094625E+00
          0                 3           2             4    7     1       0.3582090942E-03       4    7    1         0.1994060178E-01      0.4052348553E-01
          0                 4           1             4    7     1      -0.1425347779E-04       4    7    1        -0.8155719256E-03      0.1657407765E-02

    ------------------------------------------------
       NWT REQUIRED            4 OUTER ITERATIONS 
       AND A TOTAL OF          7 INNER ITERATIONS.
    ------------------------------------------------

 NO OUTPUT CONTROL FOR STRESS PERIOD   47   TIME STEP   26
 
 SOLVING FOR HEAD 
                                                   Max.-Head-Change                         Max.-Flux-Residual
  Residual-Control   Outer-Iter.   Inner-Iter.     Column Row Layer    Maximum-Head-Change  Column Row Layer    Maximum-Flux-Residual          L2-NORM 
          0                 1           2             4    7     1       0.5333831184E-01       4    7    1         0.2809714713E+01      0.5709292941E+01
          0                 2           2             4    7     1      -0.5188420234E-02       4    7    1        -0.2809753398E+00      0.5709296781E+00
          0                 3           2             4    7     1       0.3533116261E-03       4    7    1         0.1966824567E-01      0.3996490301E-01
          0                 4           1             4    7     1      -0.1405860268E-04       4    7    1        -0.8044325284E-03      0.1634554738E-02

    ------------------------------------------------
       NWT REQUIRED            4 OUTER ITERATIONS 
       AND A TOTAL OF          7 INNER ITERATIONS.
    ------------------------------------------------

 NO OUTPUT CONTROL FOR STRESS PERIOD   47   TIME STEP   27
 
 SOLVING FOR HEAD 
                                                   Max.-Head-Change                         Max.-Flux-Residual
  Residual-Control   Outer-Iter.   Inner-Iter.     Column Row Layer    Maximum-Head-Change  Column Row Layer    Maximum-Flux-Residual          L2-NORM 
          0                 1           2             4    7     1       0.5260872364E-01       4    7    1         0.2771308191E+01      0.5631408659E+01
          0                 2           2             4    7     1      -0.5117450007E-02       4    7    1        -0.2771346064E+00      0.5631413016E+00
          0                 3           2             4    7     1       0.3484788287E-03       4    7    1         0.1939939499E-01      0.3941972574E-01
          0                 4           1             4    7     1      -0.1386630114E-04       4    7    1        -0.7934365262E-03      0.1612262310E-02

    ------------------------------------------------
       NWT REQUIRED            4 OUTER ITERATIONS 
       AND A TOTAL OF          7 INNER ITERATIONS.
    ------------------------------------------------

 NO OUTPUT CONTROL FOR STRESS PERIOD   47   TIME STEP   28
 
 SOLVING FOR HEAD 
                                                   Max.-Head-Change                         Max.-Flux-Residual
  Residual-Control   Outer-Iter.   Inner-Iter.     Column Row Layer    Maximum-Head-Change  Column Row Layer    Maximum-Flux-Residual          L2-NORM 
          0                 1           2             4    7     1       0.5188871214E-01       4    7    1         0.2733393370E+01      0.5555363332E+01
          0                 2           2             4    7     1      -0.5047411333E-02       4    7    1        -0.2733430432E+00      0.5555368042E+00
          0                 3           2             4    7     1       0.3437094663E-03       4    7    1         0.1913398622E-01      0.3888741634E-01
          0                 4           1             4    7     1      -0.1367652388E-04       4    7    1        -0.7825812957E-03      0.1590482354E-02

    ------------------------------------------------
       NWT REQUIRED            4 OUTER ITERATIONS 
       AND A TOTAL OF          7 INNER ITERATIONS.
    ------------------------------------------------

 NO OUTPUT CONTROL FOR STRESS PERIOD   47   TIME STEP   29
 
 SOLVING FOR HEAD 
                                                   Max.-Head-Change                         Max.-Flux-Residual
  Residual-Control   Outer-Iter.   Inner-Iter.     Column Row Layer    Maximum-Head-Change  Column Row Layer    Maximum-Flux-Residual          L2-NORM 
          0                 1           2             4    7     1       0.5117861286E-01       4    7    1         0.2695989551E+01      0.5482280032E+01
          0                 2           2             4    7     1      -0.4978336854E-02       4    7    1        -0.2696025807E+00      0.5482270607E+00
          0                 3           2             4    7     1       0.3390057617E-03       4    7    1         0.1887215449E-01      0.3837560909E-01
          0                 4           1             4    7     1      -0.1348935898E-04       4    7    1        -0.7718723471E-03      0.1569554966E-02

    ------------------------------------------------
       NWT REQUIRED            4 OUTER ITERATIONS 
       AND A TOTAL OF          7 INNER ITERATIONS.
    ------------------------------------------------

 NO OUTPUT CONTROL FOR STRESS PERIOD   47   TIME STEP   30



 STREAM LISTING     PERIOD     47   STEP       30

 LAYER ROW COL. STREAM  RCH.  FLOW INTO     FLOW TO   FLOW OUT OF   OVRLND.     DIRECT     STREAM       STREAM     STREAM     STREAM   STREAMBED  STREAMBED
                SEG.NO.  NO.  STRM. RCH.    AQUIFER    STRM. RCH.    RUNOFF     PRECIP       ET          HEAD       DEPTH      WIDTH   CONDCTNC.   GRADIENT

   1    1    1     1     1    1.5942E+01  1.9373E-01   1.5748E+01  0.000E+00  0.000E+00  0.000E+00  1.09408E+03  1.028E+00  1.069E+01  4.809E-02  1.343E+00
   1    2    2     1     2    1.5748E+01  2.9868E-01   1.5450E+01  0.000E+00  0.000E+00  0.000E+00  1.08908E+03  1.024E+00  1.060E+01  7.423E-02  1.341E+00
   1    3    3     1     3    1.5450E+01  2.5341E-01   1.5196E+01  0.000E+00  0.000E+00  0.000E+00  1.08344E+03  1.018E+00  1.051E+01  6.306E-02  1.339E+00
   1    3    4     1     4    1.5196E+01  2.3228E-01   1.4964E+01  0.000E+00  0.000E+00  0.000E+00  1.07842E+03  1.014E+00  1.043E+01  5.787E-02  1.338E+00
   1    4    5     2     1    1.2964E+01  2.9708E-01   1.2667E+01  0.000E+00  0.000E+00  0.000E+00  1.07274E+03  8.087E-01  1.200E+01  7.800E-02  1.270E+00
   1    5    6     2     2    1.2667E+01  2.2792E-01   1.2439E+01  0.000E+00  0.000E+00  0.000E+00  1.06731E+03  7.987E-01  1.200E+01  6.000E-02  1.266E+00
   1    6    6     2     3    1.2439E+01  2.2740E-01   1.2211E+01  0.000E+00  0.000E+00  0.000E+00  1.06258E+03  7.900E-01  1.200E+01  6.000E-02  1.263E+00
   1    7    6     2     4    1.2211E+01  2.2687E-01   1.1985E+01  0.000E+00  0.000E+00  0.000E+00  1.05786E+03  7.812E-01  1.200E+01  6.000E-02  1.260E+00
   1    8    6     2     5    1.1985E+01  2.2634E-01   1.1758E+01  0.000E+00  0.000E+00  0.000E+00  1.05313E+03  7.724E-01  1.200E+01  6.000E-02  1.257E+00
   1    3    5     3     1    2.0000E+00  2.8252E-01   1.7175E+00  0.000E+00  0.000E+00  0.000E+00  1.07555E+03  1.909E+00  9.636E+00  7.227E-02  1.955E+00
   1    3    6     3     2    1.7175E+00  2.4905E-01   1.4684E+00  0.000E+00  0.000E+00  0.000E+00  1.07264E+03  1.727E+00  8.909E+00  6.682E-02  1.864E+00
   1    3    7     3     3    1.4684E+00  1.9718E-01   1.2712E+00  0.000E+00  0.000E+00  0.000E+00  1.06987E+03  1.555E+00  8.218E+00  5.547E-02  1.777E+00
   1    4    8     3     4    1.2712E+00  2.2567E-01   1.0456E+00  0.000E+00  0.000E+00  0.000E+00  1.06682E+03  1.364E+00  7.455E+00  6.709E-02  1.682E+00
   1    5    8     3     5    1.0456E+00  1.5790E-01   8.8768E-01  0.000E+00  0.000E+00  0.000E+00  1.06362E+03  1.164E+00  6.655E+00  4.991E-02  1.582E+00
   1    6    8     3     6    8.8768E-01  5.5980E-02   8.3170E-01  0.000E+00  0.000E+00  0.000E+00  1.06158E+03  1.036E+00  6.145E+00  1.844E-02  1.518E+00
   1    5   10     4     1    1.0000E+01  9.0919E-02   9.9091E+00  0.000E+00  0.000E+00  0.000E+00  1.07836E+03  6.368E-01  1.000E+01  2.500E-02  1.212E+00
   1    5    9     4     2    9.9091E+00  1.8158E-01   9.7275E+00  0.000E+00  0.000E+00  0.000E+00  1.07154E+03  6.315E-01  1.000E+01  5.000E-02  1.211E+00
   1    6    8     4     3    9.7275E+00  1.2689E-01   9.6006E+00  0.000E+00  0.000E+00  0.000E+00  1.06381E+03  6.256E-01  1.000E+01  3.500E-02  1.209E+00
   1    6    8     5     1    1.0432E+01  2.2686E-01   1.0205E+01  0.000E+00  0.000E+00  0.000E+00  1.05868E+03  6.790E-01  1.542E+01  6.166E-02  1.226E+00
   1    7    7     5     2    1.0205E+01  2.7894E-01   9.9265E+00  0.000E+00  0.000E+00  0.000E+00  1.05417E+03  6.732E-01  1.519E+01  7.594E-02  1.224E+00
   1    8    7     5     3    9.9265E+00  1.9221E-01   9.7343E+00  0.000E+00  0.000E+00  0.000E+00  1.04992E+03  6.676E-01  1.497E+01  5.241E-02  1.223E+00
   1    8    6     5     4    9.7343E+00  1.3577E-01   9.5985E+00  0.000E+00  0.000E+00  0.000E+00  1.04691E+03  6.637E-01  1.482E+01  3.706E-02  1.221E+00
   1    9    6     6     1    2.1357E+01  2.4643E-01   2.1110E+01  0.000E+00  0.000E+00  0.000E+00  1.04383E+03  1.107E+00  1.200E+01  6.000E-02  1.369E+00
   1   10    7     6     2    2.1110E+01  2.4596E-01   2.0864E+01  0.000E+00  0.000E+00  0.000E+00  1.03928E+03  1.099E+00  1.200E+01  6.000E-02  1.366E+00
   1   11    7     6     3    2.0864E+01  2.4550E-01   2.0619E+01  0.000E+00  0.000E+00  0.000E+00  1.03473E+03  1.092E+00  1.200E+01  6.000E-02  1.364E+00
   1   12    7     6     4    2.0619E+01  2.4503E-01   2.0374E+01  0.000E+00  0.000E+00  0.000E+00  1.03017E+03  1.084E+00  1.200E+01  6.000E-02  1.361E+00
   1   13    7     6     5    2.0374E+01  9.4756E-03   2.0364E+01  0.000E+00  0.000E+00  0.000E+00  1.02699E+03  1.080E+00  1.200E+01  2.400E-02  1.316E-01
   1   14    9     7     1    1.5000E+02  1.3800E+00   1.4862E+02  0.000E+00  0.000E+00  0.000E+00  1.03987E+03  2.288E+00  5.529E+01  5.593E-01  8.225E-01
   1   13    8     7     2    1.4862E+02  1.9863E+00   1.4663E+02  0.000E+00  0.000E+00  0.000E+00  1.03478E+03  2.279E+00  5.525E+01  6.147E-01  1.077E+00
   1   13    7     7     3    1.4663E+02  1.7276E+00   1.4491E+02  0.000E+00  0.000E+00  0.000E+00  1.02969E+03  2.269E+00  5.521E+01  5.584E-01  1.031E+00
   1   13    6     8     1    1.6527E+02  1.1424E+00   1.6413E+02  0.000E+00  0.000E+00  0.000E+00  1.02479E+03  2.917E+00  4.230E+01  4.311E-01  8.834E-01
   1   13    5     8     2    1.6413E+02  3.8371E-01   1.6374E+02  0.000E+00  0.000E+00  0.000E+00  1.01854E+03  2.912E+00  4.223E+01  4.303E-01  2.972E-01
   1   13    4     8     3    1.6374E+02 -1.7317E+00   1.6548E+02  0.000E+00  0.000E+00  0.000E+00  1.01229E+03  2.917E+00  4.229E+01  4.310E+00 -1.339E-01
   1   13    3     8     4    1.6548E+02 -3.3194E+00   1.6880E+02  0.000E+00  0.000E+00  0.000E+00  1.00606E+03  2.933E+00  4.254E+01  4.334E+00 -2.553E-01
   1   13    2     8     5    1.6880E+02 -2.5150E+00   1.7131E+02  0.000E+00  0.000E+00  0.000E+00  9.99828E+02  2.953E+00  4.281E+01  4.363E+00 -1.922E-01
   1   13    1     8     6    1.7131E+02 -1.9838E+00   1.7329E+02  0.000E+00  0.000E+00  0.000E+00  9.94842E+02  2.967E+00  4.302E+01  2.631E+00 -2.514E-01
   1    8    6     9     1    0.0000E+00  0.0000E+00   0.0000E+00  0.000E+00  0.000E+00  0.000E+00  1.07875E+03  0.000E+00  4.000E+00  0.000E+00  1.000E+00
   1    8    5     9     2    0.0000E+00  0.0000E+00   0.0000E+00  0.000E+00  0.000E+00  0.000E+00  1.07825E+03  0.000E+00  4.000E+00  0.000E+00  1.000E+00





UNSATURATED ZONE PACKAGE VOLUMETRIC BUDGET FOR  TIME STEP    30 STRESS PERIOD   47
  ------------------------------------------------------------------------------



     CUMULATIVE VOLUMES      L**3       RATES FOR THIS TIME STEP      L**3/T
     ------------------                 ------------------------

           IN:                                      IN:
           ---                                      ---
        INFILTRATION =  1702380653.2028          INFILTRATION =           1.5675

          OUT:                                     OUT:
          ----                                     ----
              UZF ET =  1701555088.2147                UZF ET =           1.5675
        UZF RECHARGE =       73224.0000          UZF RECHARGE =       0.0000E+00

            IN - OUT =      752340.9881              IN - OUT =       0.0000E+00

          STORAGE:                                 STORAGE:
          --------                                 --------
      STORAGE CHANGE =      752341.1376        STORAGE CHANGE =       3.3198E-16

 PERCENT DISCREPANCY IS DIFFERENCE BETWEEN IN-OUT MINUS CHANGE IN STORAGE
 DIVIDED BY THE AVERAGE OF IN AND OUT TIMES 100

 PERCENT DISCREPANCY =           0.00     PERCENT DISCREPANCY =           0.00






1
  VOLUMETRIC BUDGET FOR AGRICULTURAL FIELDS AT  END OF TIME STEP   30, STRESS PERIOD  47
  ------------------------------------------------------------------------------

     CUMULATIVE VOLUMES      L**3       RATES FOR THIS TIME STEP      L**3/T
     ------------------                 ------------------------

           IN:                                      IN:
           ---                                      ---
               AG WELLS  =  1599775104.0000                 AG WELLS  =           0.7200
      DIVERSION SEGMENTS =           0.0000        DIVERSION SEGMENTS =           0.0000
       IRRIGATION PONDS  =           0.0000         IRRIGATION PONDS  =           0.0000
           GW IRRIGATION =           0.0000             GW IRRIGATION =           0.0000
           SW IRRIGATION =           0.0000             SW IRRIGATION =           0.0000
        SYSTEM LOSSES GW =           0.0000          SYSTEM LOSSES GW =           0.0000
        SYSTEM LOSSES SW =           0.0000          SYSTEM LOSSES SW =           0.0000

                TOTAL IN =  1599775104.0000                  TOTAL IN =           0.7200

          OUT:                                     OUT:
          ----                                     ----
               AG WELLS  =           0.0000                 AG WELLS  =           0.0000
      DIVERSION SEGMENTS =           0.0000        DIVERSION SEGMENTS =           0.0000
       IRRIGATION PONDS  =           0.0000         IRRIGATION PONDS  =           0.0000
           GW IRRIGATION =  1599775104.0000             GW IRRIGATION =           0.7200
           SW IRRIGATION =           0.0000             SW IRRIGATION =           0.0000
        SYSTEM LOSSES GW =           0.0000          SYSTEM LOSSES GW =           0.0000
        SYSTEM LOSSES SW =           0.0000          SYSTEM LOSSES SW =           0.0000

               TOTAL OUT =  1599775104.0000                 TOTAL OUT =           0.7200

                IN - OUT =           0.0000                  IN - OUT =           0.0000

     PERCENT DISCREPANCY =           0.00         PERCENT DISCREPANCY =           0.00



1
  VOLUMETRIC BUDGET FOR ENTIRE MODEL AT END OF TIME STEP   30, STRESS PERIOD  47
  ------------------------------------------------------------------------------

     CUMULATIVE VOLUMES      L**3       RATES FOR THIS TIME STEP      L**3/T
     ------------------                 ------------------------

           IN:                                      IN:
           ---                                      ---
             STORAGE     =  2132609920.0000               STORAGE     =          12.6317
       CONSTANT HEAD     =           0.0000         CONSTANT HEAD     =           0.0000
     HEAD DEP BOUNDS     =    34698684.0000       HEAD DEP BOUNDS     =           0.2888
      STREAM LEAKAGE     =  1505675136.0000        STREAM LEAKAGE     =          12.1976
        UZF RECHARGE     =       73223.9531          UZF RECHARGE     =           0.0000
               GW ET     =           0.0000                 GW ET     =           0.0000
     SURFACE LEAKAGE     =           0.0000       SURFACE LEAKAGE     =           0.0000
           AG WELLS      =           0.0000             AG WELLS      =           0.0000

                TOTAL IN =  3673056768.0000                  TOTAL IN =          25.1180

          OUT:                                     OUT:
          ----                                     ----
             STORAGE     =   809077504.0000               STORAGE     =          14.5595
       CONSTANT HEAD     =           0.0000         CONSTANT HEAD     =           0.0000
     HEAD DEP BOUNDS     =    35363384.0000       HEAD DEP BOUNDS     =           0.2887
      STREAM LEAKAGE     =  1220438784.0000        STREAM LEAKAGE     =           9.5499
        UZF RECHARGE     =           0.0000          UZF RECHARGE     =           0.0000
               GW ET     =     8413934.0000                 GW ET     =           0.0000
     SURFACE LEAKAGE     =           0.0000       SURFACE LEAKAGE     =           0.0000
           AG WELLS      =  1599775104.0000             AG WELLS      =           0.7200

               TOTAL OUT =  3673068544.0000                 TOTAL OUT =          25.1180

                IN - OUT =      -11776.0000                  IN - OUT =       1.3351E-05

     PERCENT DISCREPANCY =          -0.00         PERCENT DISCREPANCY =           0.00






         TIME SUMMARY AT END OF TIME STEP   30 IN STRESS PERIOD   47
                    SECONDS     MINUTES      HOURS       DAYS        YEARS
                    -----------------------------------------------------------
   TIME STEP LENGTH  87667.      1461.1      24.352      1.0147     2.77799E-03
 STRESS PERIOD TIME 2.63000E+06  43833.      730.56      30.440     8.33397E-02
         TOTAL TIME 1.21065E+08 2.01775E+06  33629.      1401.2      3.8363    
1
1
                            STRESS PERIOD NO.   48, LENGTH =   2630000.    
                            -----------------------------------------------

                              NUMBER OF TIME STEPS =    30

                               MULTIPLIER FOR DELT =     1.000

                            INITIAL TIME STEP SIZE =   87666.66    

 REUSING NON-PARAMETER GHB CELLS FROM LAST STRESS PERIOD

      2 GHB CELLS

 REUSING STREAM SEGMENT DATA FROM LAST STRESS PERIOD



            AREAL INFILTRATION RATE
 READING ON UNIT   19 WITH FORMAT: (FREE)              

            1           2           3           4           5           6           7           8           9          10
 ........................................................................................................................
   1   1.0000E-10  2.0000E-10   0.000       0.000       0.000       0.000       0.000       0.000       0.000       0.000    
   2   2.0000E-10  1.0000E-10  2.0000E-10   0.000       0.000      8.0000E-10  8.0000E-10  5.0000E-10   0.000       0.000    
   3    0.000      5.0000E-10  1.0000E-10  1.0000E-10  8.0000E-10  8.0000E-10  5.0000E-10  5.0000E-10   0.000       0.000    
   4   8.0000E-10  5.0000E-10  1.0000E-10  1.0000E-10  1.0000E-10  1.0000E-10  1.0000E-10  1.0000E-10  2.0000E-10   0.000    
   5   8.0000E-10  5.0000E-10  1.0000E-10  1.0000E-10  1.0000E-10  1.0000E-10  1.0000E-10  1.0000E-10  1.0000E-10  1.0000E-10
   6   8.0000E-10  5.0000E-10  5.0000E-10  2.0000E-10  2.0000E-10  1.0000E-10  1.0000E-10  1.0000E-10  1.0000E-10  5.0000E-10
   7   8.0000E-10  5.0000E-10  5.0000E-10  2.0000E-10  2.0000E-10  1.0000E-10  1.0000E-10  2.0000E-10  2.0000E-10   0.000    
   8    0.000      5.0000E-10  5.0000E-10  2.0000E-10  2.0000E-10  1.0000E-10  1.0000E-10  2.0000E-10  5.0000E-10   0.000    
   9    0.000      5.0000E-10  5.0000E-10  2.0000E-10  2.0000E-10  1.0000E-10  1.0000E-10  2.0000E-10  5.0000E-10   0.000    
  10    0.000      5.0000E-10  5.0000E-10  2.0000E-10  2.0000E-10  1.0000E-10  1.0000E-10  2.0000E-10  5.0000E-10  8.0000E-10
  11    0.000      1.0000E-10  1.0000E-10  1.0000E-10  1.0000E-10  1.0000E-10  1.0000E-10  2.0000E-10  5.0000E-10   0.000    
  12   1.0000E-10  1.0000E-10  1.0000E-10  1.0000E-10  1.0000E-10  1.0000E-10  1.0000E-10  1.0000E-10  2.0000E-10   0.000    
  13   1.0000E-10  1.0000E-10  2.0000E-10  2.0000E-10  2.0000E-10  2.0000E-10  2.0000E-10  1.0000E-10  1.0000E-10   0.000    
  14    0.000      2.0000E-10  5.0000E-10  5.0000E-10  5.0000E-10  5.0000E-10  5.0000E-10  2.0000E-10  1.0000E-10   0.000    
  15    0.000       0.000      8.0000E-10  8.0000E-10  8.0000E-10  8.0000E-10   0.000       0.000       0.000       0.000    

                  ET RATE =  5.000000E-10

 USING ET EXTINCTION DEPTH FROM PREVIOUS STRESS PERIOD. CURRENT PERIOD IS:      48

 USING EXTINCTION WATER CONTENT FROM PREVIOUS STRESS PERIOD. CURRENT PERIOD IS:      48

 USING AIR ENTRY PRESSURE FROM PREVIOUS STRESS PERIOD. CURRENT PERIOD IS:      48

 USING ROOT PRESSURE HEAD FROM PREVIOUS STRESS PERIOD. CURRENT PERIOD IS:      48

 USING ROOT ACTIVITY FROM PREVIOUS STRESS PERIOD. CURRENT PERIOD IS:      48

 PROCESSING AG STRESS PERIOD DATA

 READING AG STRESS PERIOD DATA

 READING IRRIGATION SEGMENT

 READING IRRIGATION WELL

 READING SUPPLEMENTAL WELL

 NO IRRPOND OR REUSING IRRPOND DATA FROM LAST STRESS PERIOD

 END PROCESSING AG STRESS PERIOD DATA OPTIONS
 
 SOLVING FOR HEAD 
                                                   Max.-Head-Change                         Max.-Flux-Residual
  Residual-Control   Outer-Iter.   Inner-Iter.     Column Row Layer    Maximum-Head-Change  Column Row Layer    Maximum-Flux-Residual          L2-NORM 
          0                 1           2             4    7     1       0.5277725745E-01       4    7    1         0.2779099646E+01      0.5681625146E+01
          0                 2           2             4    7     1      -0.5133843557E-02       4    7    1        -0.2779137358E+00      0.5681615348E+00
          0                 3           2             4    7     1       0.3495951705E-03       4    7    1         0.1945393422E-01      0.3977100020E-01
          0                 4           1             4    7     1      -0.1391072163E-04       4    7    1        -0.7956671784E-03      0.1626621127E-02

    ------------------------------------------------
       NWT REQUIRED            4 OUTER ITERATIONS 
       AND A TOTAL OF          7 INNER ITERATIONS.
    ------------------------------------------------

 NO OUTPUT CONTROL FOR STRESS PERIOD   48   TIME STEP    1
 
 SOLVING FOR HEAD 
                                                   Max.-Head-Change                         Max.-Flux-Residual
  Residual-Control   Outer-Iter.   Inner-Iter.     Column Row Layer    Maximum-Head-Change  Column Row Layer    Maximum-Flux-Residual          L2-NORM 
          0                 1           2             4    7     1       0.5207509612E-01       4    7    1         0.2742155402E+01      0.5606338206E+01
          0                 2           2             4    7     1      -0.5065541284E-02       4    7    1        -0.2742192348E+00      0.5606330390E+00
          0                 3           2             4    7     1       0.3449440500E-03       4    7    1         0.1919531977E-01      0.3924403879E-01
          0                 4           1             4    7     1      -0.1372564917E-04       4    7    1        -0.7850898428E-03      0.1605057971E-02

    ------------------------------------------------
       NWT REQUIRED            4 OUTER ITERATIONS 
       AND A TOTAL OF          7 INNER ITERATIONS.
    ------------------------------------------------

 NO OUTPUT CONTROL FOR STRESS PERIOD   48   TIME STEP    2
 
 SOLVING FOR HEAD 
                                                   Max.-Head-Change                         Max.-Flux-Residual
  Residual-Control   Outer-Iter.   Inner-Iter.     Column Row Layer    Maximum-Head-Change  Column Row Layer    Maximum-Flux-Residual          L2-NORM 
          0                 1           2             4    7     1       0.5138188159E-01       4    7    1         0.2705669834E+01      0.5532813694E+01
          0                 2           2             4    7     1      -0.4998109289E-02       4    7    1        -0.2705706014E+00      0.5532807597E+00
          0                 3           2             4    7     1       0.3403521918E-03       4    7    1         0.1893991604E-01      0.3872940469E-01
          0                 4           1             4    7     1      -0.1354293465E-04       4    7    1        -0.7746438000E-03      0.1584016935E-02

    ------------------------------------------------
       NWT REQUIRED            4 OUTER ITERATIONS 
       AND A TOTAL OF          7 INNER ITERATIONS.
    ------------------------------------------------

 NO OUTPUT CONTROL FOR STRESS PERIOD   48   TIME STEP    3
 
 SOLVING FOR HEAD 
                                                   Max.-Head-Change                         Max.-Flux-Residual
  Residual-Control   Outer-Iter.   Inner-Iter.     Column Row Layer    Maximum-Head-Change  Column Row Layer    Maximum-Flux-Residual          L2-NORM 
          0                 1           2             4    7     1       0.5069795735E-01       4    7    1         0.2669662616E+01      0.5461003035E+01
          0                 2           2             4    7     1      -0.4931580990E-02       4    7    1        -0.2669698035E+00      0.5460998186E+00
          0                 3           2             4    7     1       0.3358218725E-03       4    7    1         0.1868786081E-01      0.3822674748E-01
          0                 4           1             4    7     1      -0.1336266877E-04       4    7    1        -0.7643347219E-03      0.1563470281E-02

    ------------------------------------------------
       NWT REQUIRED            4 OUTER ITERATIONS 
       AND A TOTAL OF          7 INNER ITERATIONS.
    ------------------------------------------------

 NO OUTPUT CONTROL FOR STRESS PERIOD   48   TIME STEP    4
 
 SOLVING FOR HEAD 
                                                   Max.-Head-Change                         Max.-Flux-Residual
  Residual-Control   Outer-Iter.   Inner-Iter.     Column Row Layer    Maximum-Head-Change  Column Row Layer    Maximum-Flux-Residual          L2-NORM 
          0                 1           2             4    7     1       0.5002310416E-01       4    7    1         0.2634122577E+01      0.5390830832E+01
          0                 2           2             4    7     1      -0.4865935063E-02       4    7    1        -0.2634157236E+00      0.5390827098E+00
          0                 3           2             4    7     1       0.3313516392E-03       4    7    1         0.1843907582E-01      0.3773556331E-01
          0                 4           1             4    7     1      -0.1318479433E-04       4    7    1        -0.7541594164E-03      0.1543371714E-02

    ------------------------------------------------
       NWT REQUIRED            4 OUTER ITERATIONS 
       AND A TOTAL OF          7 INNER ITERATIONS.
    ------------------------------------------------

 NO OUTPUT CONTROL FOR STRESS PERIOD   48   TIME STEP    5
 
 SOLVING FOR HEAD 
                                                   Max.-Head-Change                         Max.-Flux-Residual
  Residual-Control   Outer-Iter.   Inner-Iter.     Column Row Layer    Maximum-Head-Change  Column Row Layer    Maximum-Flux-Residual          L2-NORM 
          0                 1           2             4    7     1       0.4935749600E-01       4    7    1         0.2599060087E+01      0.5322240763E+01
          0                 2           2             4    7     1      -0.4801188432E-02       4    7    1        -0.2599093993E+00      0.5322237908E+00
          0                 3           2             4    7     1       0.3269426445E-03       4    7    1         0.1819363373E-01      0.3725545163E-01
          0                 4           1             4    7     1      -0.1300935633E-04       4    7    1        -0.7441208118E-03      0.1523741537E-02

    ------------------------------------------------
       NWT REQUIRED            4 OUTER ITERATIONS 
       AND A TOTAL OF          7 INNER ITERATIONS.
    ------------------------------------------------

 NO OUTPUT CONTROL FOR STRESS PERIOD   48   TIME STEP    6
 
 SOLVING FOR HEAD 
                                                   Max.-Head-Change                         Max.-Flux-Residual
  Residual-Control   Outer-Iter.   Inner-Iter.     Column Row Layer    Maximum-Head-Change  Column Row Layer    Maximum-Flux-Residual          L2-NORM 
          0                 1           2             4    7     1       0.4870115453E-01       4    7    1         0.2564476921E+01      0.5255187055E+01
          0                 2           2             4    7     1      -0.4737343206E-02       4    7    1        -0.2564510080E+00      0.5255185082E+00
          0                 3           2             4    7     1       0.3225950319E-03       4    7    1         0.1795154694E-01      0.3678608936E-01
          0                 4           1             4    7     1      -0.1283636064E-04       4    7    1        -0.7342194410E-03      0.1504542602E-02

    ------------------------------------------------
       NWT REQUIRED            4 OUTER ITERATIONS 
       AND A TOTAL OF          7 INNER ITERATIONS.
    ------------------------------------------------

 NO OUTPUT CONTROL FOR STRESS PERIOD   48   TIME STEP    7
 
 SOLVING FOR HEAD 
                                                   Max.-Head-Change                         Max.-Flux-Residual
  Residual-Control   Outer-Iter.   Inner-Iter.     Column Row Layer    Maximum-Head-Change  Column Row Layer    Maximum-Flux-Residual          L2-NORM 
          0                 1           2             4    7     1       0.4805408415E-01       4    7    1         0.2530374203E+01      0.5189609929E+01
          0                 2           2             4    7     1      -0.4674399816E-02       4    7    1        -0.2530406622E+00      0.5189608495E+00
          0                 3           2             4    7     1       0.3183088312E-03       4    7    1         0.1771282333E-01      0.3632706640E-01
          0                 4           1             4    7     1      -0.1266580866E-04       4    7    1        -0.7244556327E-03      0.1485769917E-02

    ------------------------------------------------
       NWT REQUIRED            4 OUTER ITERATIONS 
       AND A TOTAL OF          7 INNER ITERATIONS.
    ------------------------------------------------

 NO OUTPUT CONTROL FOR STRESS PERIOD   48   TIME STEP    8
 
 SOLVING FOR HEAD 
                                                   Max.-Head-Change                         Max.-Flux-Residual
  Residual-Control   Outer-Iter.   Inner-Iter.     Column Row Layer    Maximum-Head-Change  Column Row Layer    Maximum-Flux-Residual          L2-NORM 
          0                 1           2             4    7     1       0.4741641199E-01       4    7    1         0.2496759413E+01      0.5125470325E+01
          0                 2           2             4    7     1      -0.4612370628E-02       4    7    1        -0.2496791100E+00      0.5125468707E+00
          0                 3           2             4    7     1       0.3140848838E-03       4    7    1         0.1747751527E-01      0.3587798193E-01
          0                 4           1             4    7     1      -0.1249773330E-04       4    7    1        -0.7148315053E-03      0.1467397429E-02

    ------------------------------------------------
       NWT REQUIRED            4 OUTER ITERATIONS 
       AND A TOTAL OF          7 INNER ITERATIONS.
    ------------------------------------------------

 NO OUTPUT CONTROL FOR STRESS PERIOD   48   TIME STEP    9
 
 SOLVING FOR HEAD 
                                                   Max.-Head-Change                         Max.-Flux-Residual
  Residual-Control   Outer-Iter.   Inner-Iter.     Column Row Layer    Maximum-Head-Change  Column Row Layer    Maximum-Flux-Residual          L2-NORM 
          0                 1           2             4    7     1       0.4678797974E-01       4    7    1         0.2463624640E+01      0.5062713021E+01
          0                 2           2             4    7     1      -0.4551240245E-02       4    7    1        -0.2463655604E+00      0.5062712696E+00
          0                 3           2             4    7     1       0.3099221411E-03       4    7    1         0.1724556736E-01      0.3543882156E-01
          0                 4           1             4    7     1      -0.1233209393E-04       4    7    1        -0.7053448139E-03      0.1449431704E-02

    ------------------------------------------------
       NWT REQUIRED            4 OUTER ITERATIONS 
       AND A TOTAL OF          7 INNER ITERATIONS.
    ------------------------------------------------

 NO OUTPUT CONTROL FOR STRESS PERIOD   48   TIME STEP   10
 
 SOLVING FOR HEAD 
                                                   Max.-Head-Change                         Max.-Flux-Residual
  Residual-Control   Outer-Iter.   Inner-Iter.     Column Row Layer    Maximum-Head-Change  Column Row Layer    Maximum-Flux-Residual          L2-NORM 
          0                 1           2             4    7     1       0.4616888808E-01       4    7    1         0.2430976179E+01      0.5001294916E+01
          0                 2           2             4    7     1      -0.4491018461E-02       4    7    1        -0.2431006432E+00      0.5001295151E+00
          0                 3           2             4    7     1       0.3058212719E-03       4    7    1         0.1701702375E-01      0.3500890204E-01
          0                 4           1             4    7     1      -0.1216891690E-04       4    7    1        -0.6959973844E-03      0.1431860222E-02

    ------------------------------------------------
       NWT REQUIRED            4 OUTER ITERATIONS 
       AND A TOTAL OF          7 INNER ITERATIONS.
    ------------------------------------------------

 NO OUTPUT CONTROL FOR STRESS PERIOD   48   TIME STEP   11
 
 SOLVING FOR HEAD 
                                                   Max.-Head-Change                         Max.-Flux-Residual
  Residual-Control   Outer-Iter.   Inner-Iter.     Column Row Layer    Maximum-Head-Change  Column Row Layer    Maximum-Flux-Residual          L2-NORM 
          0                 1           2             4    7     1       0.4555909082E-01       4    7    1         0.2398812001E+01      0.4941182816E+01
          0                 2           2             4    7     1      -0.4431700784E-02       4    7    1        -0.2398841551E+00      0.4941183324E+00
          0                 3           2             4    7     1       0.3017819678E-03       4    7    1         0.1679187015E-01      0.3458811864E-01
          0                 4           1             4    7     1      -0.1200818898E-04       4    7    1        -0.6867885784E-03      0.1414652874E-02

    ------------------------------------------------
       NWT REQUIRED            4 OUTER ITERATIONS 
       AND A TOTAL OF          7 INNER ITERATIONS.
    ------------------------------------------------

 NO OUTPUT CONTROL FOR STRESS PERIOD   48   TIME STEP   12
 
 SOLVING FOR HEAD 
                                                   Max.-Head-Change                         Max.-Flux-Residual
  Residual-Control   Outer-Iter.   Inner-Iter.     Column Row Layer    Maximum-Head-Change  Column Row Layer    Maximum-Flux-Residual          L2-NORM 
          0                 1           2             4    7     1       0.4495839510E-01       4    7    1         0.2367122457E+01      0.4882316691E+01
          0                 2           2             4    7     1      -0.4373268455E-02       4    7    1        -0.2367151316E+00      0.4882317703E+00
          0                 3           2             4    7     1       0.2978029529E-03       4    7    1         0.1657003907E-01      0.3417606485E-01
          0                 4           1             4    7     1      -0.1184986021E-04       4    7    1        -0.6777156666E-03      0.1397790439E-02

    ------------------------------------------------
       NWT REQUIRED            4 OUTER ITERATIONS 
       AND A TOTAL OF          7 INNER ITERATIONS.
    ------------------------------------------------

 NO OUTPUT CONTROL FOR STRESS PERIOD   48   TIME STEP   13
 
 SOLVING FOR HEAD 
                                                   Max.-Head-Change                         Max.-Flux-Residual
  Residual-Control   Outer-Iter.   Inner-Iter.     Column Row Layer    Maximum-Head-Change  Column Row Layer    Maximum-Flux-Residual          L2-NORM 
          0                 1           2             4    7     1       0.4436701091E-01       4    7    1         0.2335919308E+01      0.4824677319E+01
          0                 2           2             4    7     1      -0.4315741900E-02       4    7    1        -0.2335947487E+00      0.4824678272E+00
          0                 3           2             4    7     1       0.2938856173E-03       4    7    1         0.1635161280E-01      0.3377259898E-01
          0                 4           1             4    7     1      -0.1169398539E-04       4    7    1        -0.6687820037E-03      0.1381296766E-02

    ------------------------------------------------
       NWT REQUIRED            4 OUTER ITERATIONS 
       AND A TOTAL OF          7 INNER ITERATIONS.
    ------------------------------------------------

 NO OUTPUT CONTROL FOR STRESS PERIOD   48   TIME STEP   14
 
 SOLVING FOR HEAD 
                                                   Max.-Head-Change                         Max.-Flux-Residual
  Residual-Control   Outer-Iter.   Inner-Iter.     Column Row Layer    Maximum-Head-Change  Column Row Layer    Maximum-Flux-Residual          L2-NORM 
          0                 1           2             4    7     1       0.4378472774E-01       4    7    1         0.2305191682E+01      0.4768219325E+01
          0                 2           2             4    7     1      -0.4259100645E-02       4    7    1        -0.2305219194E+00      0.4768220466E+00
          0                 3           2             4    7     1       0.2900285677E-03       4    7    1         0.1613651530E-01      0.3337739685E-01
          0                 4           1             4    7     1      -0.1154051016E-04       4    7    1        -0.6599845233E-03      0.1365138248E-02

    ------------------------------------------------
       NWT REQUIRED            4 OUTER ITERATIONS 
       AND A TOTAL OF          7 INNER ITERATIONS.
    ------------------------------------------------

 NO OUTPUT CONTROL FOR STRESS PERIOD   48   TIME STEP   15
 
 SOLVING FOR HEAD 
                                                   Max.-Head-Change                         Max.-Flux-Residual
  Residual-Control   Outer-Iter.   Inner-Iter.     Column Row Layer    Maximum-Head-Change  Column Row Layer    Maximum-Flux-Residual          L2-NORM 
          0                 1           2             4    7     1       0.4321146477E-01       4    7    1         0.2274935917E+01      0.4712916207E+01
          0                 2           2             4    7     1      -0.4203336825E-02       4    7    1        -0.2274962774E+00      0.4712917409E+00
          0                 3           2             4    7     1       0.2862312679E-03       4    7    1         0.1592472089E-01      0.3299027596E-01
          0                 4           1             4    7     1      -0.1138941210E-04       4    7    1        -0.6513221217E-03      0.1349293458E-02

    ------------------------------------------------
       NWT REQUIRED            4 OUTER ITERATIONS 
       AND A TOTAL OF          7 INNER ITERATIONS.
    ------------------------------------------------

 NO OUTPUT CONTROL FOR STRESS PERIOD   48   TIME STEP   16
 
 SOLVING FOR HEAD 
                                                   Max.-Head-Change                         Max.-Flux-Residual
  Residual-Control   Outer-Iter.   Inner-Iter.     Column Row Layer    Maximum-Head-Change  Column Row Layer    Maximum-Flux-Residual          L2-NORM 
          0                 1           2             4    7     1       0.4264727036E-01       4    7    1         0.2245155081E+01      0.4658723156E+01
          0                 2           2             4    7     1      -0.4148455149E-02       4    7    1        -0.2245181295E+00      0.4658724393E+00
          0                 3           2             4    7     1       0.2824940379E-03       4    7    1         0.1571625104E-01      0.3261092547E-01
          0                 4           1             4    7     1      -0.1124070396E-04       4    7    1        -0.6427956719E-03      0.1333780875E-02

    ------------------------------------------------
       NWT REQUIRED            4 OUTER ITERATIONS 
       AND A TOTAL OF          7 INNER ITERATIONS.
    ------------------------------------------------

 NO OUTPUT CONTROL FOR STRESS PERIOD   48   TIME STEP   17
 
 SOLVING FOR HEAD 
                                                   Max.-Head-Change                         Max.-Flux-Residual
  Residual-Control   Outer-Iter.   Inner-Iter.     Column Row Layer    Maximum-Head-Change  Column Row Layer    Maximum-Flux-Residual          L2-NORM 
          0                 1           2             4    7     1       0.4209191568E-01       4    7    1         0.2215837169E+01      0.4605614637E+01
          0                 2           2             4    7     1      -0.4094433354E-02       4    7    1        -0.2215862752E+00      0.4605615853E+00
          0                 3           2             4    7     1       0.2788153632E-03       4    7    1         0.1551102175E-01      0.3223917219E-01
          0                 4           1             4    7     1      -0.1109432624E-04       4    7    1        -0.6344017868E-03      0.1318568542E-02

    ------------------------------------------------
       NWT REQUIRED            4 OUTER ITERATIONS 
       AND A TOTAL OF          7 INNER ITERATIONS.
    ------------------------------------------------

 NO OUTPUT CONTROL FOR STRESS PERIOD   48   TIME STEP   18
 
 SOLVING FOR HEAD 
                                                   Max.-Head-Change                         Max.-Flux-Residual
  Residual-Control   Outer-Iter.   Inner-Iter.     Column Row Layer    Maximum-Head-Change  Column Row Layer    Maximum-Flux-Residual          L2-NORM 
          0                 1           2             4    7     1       0.4154543631E-01       4    7    1         0.2186984830E+01      0.4553554198E+01
          0                 2           2             4    7     1      -0.4041274904E-02       4    7    1        -0.2187009794E+00      0.4553555851E+00
          0                 3           2             4    7     1       0.2751954786E-03       4    7    1         0.1530905154E-01      0.3187479467E-01
          0                 4           1             4    7     1      -0.1095028734E-04       4    7    1        -0.6261411841E-03      0.1303674032E-02

    ------------------------------------------------
       NWT REQUIRED            4 OUTER ITERATIONS 
       AND A TOTAL OF          7 INNER ITERATIONS.
    ------------------------------------------------

 NO OUTPUT CONTROL FOR STRESS PERIOD   48   TIME STEP   19
 
 SOLVING FOR HEAD 
                                                   Max.-Head-Change                         Max.-Flux-Residual
  Residual-Control   Outer-Iter.   Inner-Iter.     Column Row Layer    Maximum-Head-Change  Column Row Layer    Maximum-Flux-Residual          L2-NORM 
          0                 1           2             4    7     1       0.4100772698E-01       4    7    1         0.2158592652E+01      0.4502516163E+01
          0                 2           2             4    7     1      -0.3988969559E-02       4    7    1        -0.2158617011E+00      0.4502517352E+00
          0                 3           2             4    7     1       0.2716336876E-03       4    7    1         0.1511030255E-01      0.3151749489E-01
          0                 4           1             4    7     1      -0.1080856066E-04       4    7    1        -0.6180123530E-03      0.1289061964E-02

    ------------------------------------------------
       NWT REQUIRED            4 OUTER ITERATIONS 
       AND A TOTAL OF          7 INNER ITERATIONS.
    ------------------------------------------------

 NO OUTPUT CONTROL FOR STRESS PERIOD   48   TIME STEP   20
 
 SOLVING FOR HEAD 
                                                   Max.-Head-Change                         Max.-Flux-Residual
  Residual-Control   Outer-Iter.   Inner-Iter.     Column Row Layer    Maximum-Head-Change  Column Row Layer    Maximum-Flux-Residual          L2-NORM 
          0                 1           2             4    7     1       0.4047854595E-01       4    7    1         0.2130647919E+01      0.4452472182E+01
          0                 2           2             4    7     1      -0.3937493802E-02       4    7    1        -0.2130671686E+00      0.4452473476E+00
          0                 3           2             4    7     1       0.2681283876E-03       4    7    1         0.1491468575E-01      0.3116719918E-01
          0                 4           1             4    7     1      -0.1066908092E-04       4    7    1        -0.6100116011E-03      0.1274735120E-02

    ------------------------------------------------
       NWT REQUIRED            4 OUTER ITERATIONS 
       AND A TOTAL OF          7 INNER ITERATIONS.
    ------------------------------------------------

 NO OUTPUT CONTROL FOR STRESS PERIOD   48   TIME STEP   21
 
 SOLVING FOR HEAD 
                                                   Max.-Head-Change                         Max.-Flux-Residual
  Residual-Control   Outer-Iter.   Inner-Iter.     Column Row Layer    Maximum-Head-Change  Column Row Layer    Maximum-Flux-Residual          L2-NORM 
          0                 1           2             4    7     1       0.3995805070E-01       4    7    1         0.2103159873E+01      0.4403391727E+01
          0                 2           2             4    7     1      -0.3886862955E-02       4    7    1        -0.2103183060E+00      0.4403392862E+00
          0                 3           2             4    7     1       0.2646806228E-03       4    7    1         0.1472226583E-01      0.3082363214E-01
          0                 4           1             4    7     1      -0.1053189153E-04       4    7    1        -0.6021416157E-03      0.1260679050E-02

    ------------------------------------------------
       NWT REQUIRED            4 OUTER ITERATIONS 
       AND A TOTAL OF          7 INNER ITERATIONS.
    ------------------------------------------------

 NO OUTPUT CONTROL FOR STRESS PERIOD   48   TIME STEP   22
 
 SOLVING FOR HEAD 
                                                   Max.-Head-Change                         Max.-Flux-Residual
  Residual-Control   Outer-Iter.   Inner-Iter.     Column Row Layer    Maximum-Head-Change  Column Row Layer    Maximum-Flux-Residual          L2-NORM 
          0                 1           2             4    7     1       0.3944598750E-01       4    7    1         0.2076114905E+01      0.4355252536E+01
          0                 2           2             4    7     1      -0.3837052335E-02       4    7    1        -0.2076137525E+00      0.4355253674E+00
          0                 3           2             4    7     1       0.2612887126E-03       4    7    1         0.1453294755E-01      0.3048666070E-01
          0                 4           1             4    7     1      -0.1039692388E-04       4    7    1        -0.5943984766E-03      0.1246902797E-02

    ------------------------------------------------
       NWT REQUIRED            4 OUTER ITERATIONS 
       AND A TOTAL OF          7 INNER ITERATIONS.
    ------------------------------------------------

 NO OUTPUT CONTROL FOR STRESS PERIOD   48   TIME STEP   23
 
 SOLVING FOR HEAD 
                                                   Max.-Head-Change                         Max.-Flux-Residual
  Residual-Control   Outer-Iter.   Inner-Iter.     Column Row Layer    Maximum-Head-Change  Column Row Layer    Maximum-Flux-Residual          L2-NORM 
          0                 1           2             4    7     1       0.3894237046E-01       4    7    1         0.2049514377E+01      0.4308028395E+01
          0                 2           2             4    7     1      -0.3788063315E-02       4    7    1        -0.2049536443E+00      0.4308029315E+00
          0                 3           2             4    7     1       0.2579527503E-03       4    7    1         0.1434674043E-01      0.3015609242E-01
          0                 4           1             4    7     1      -0.1026418302E-04       4    7    1        -0.5867826005E-03      0.1233380130E-02

    ------------------------------------------------
       NWT REQUIRED            4 OUTER ITERATIONS 
       AND A TOTAL OF          7 INNER ITERATIONS.
    ------------------------------------------------

 NO OUTPUT CONTROL FOR STRESS PERIOD   48   TIME STEP   24
 
 SOLVING FOR HEAD 
                                                   Max.-Head-Change                         Max.-Flux-Residual
  Residual-Control   Outer-Iter.   Inner-Iter.     Column Row Layer    Maximum-Head-Change  Column Row Layer    Maximum-Flux-Residual          L2-NORM 
          0                 1           2             4    7     1       0.3844694143E-01       4    7    1         0.2023344501E+01      0.4261695105E+01
          0                 2           2             4    7     1      -0.3739870783E-02       4    7    1        -0.2023366025E+00      0.4261696087E+00
          0                 3           2             4    7     1       0.2546710250E-03       4    7    1         0.1416354792E-01      0.2983177674E-01
          0                 4           1             4    7     1      -0.1013360000E-04       4    7    1        -0.5792900142E-03      0.1220121296E-02

    ------------------------------------------------
       NWT REQUIRED            4 OUTER ITERATIONS 
       AND A TOTAL OF          7 INNER ITERATIONS.
    ------------------------------------------------

 NO OUTPUT CONTROL FOR STRESS PERIOD   48   TIME STEP   25
 
 SOLVING FOR HEAD 
                                                   Max.-Head-Change                         Max.-Flux-Residual
  Residual-Control   Outer-Iter.   Inner-Iter.     Column Row Layer    Maximum-Head-Change  Column Row Layer    Maximum-Flux-Residual          L2-NORM 
          0                 1           2             4    7     1       0.3795971243E-01       4    7    1         0.1997606414E+01      0.4216224889E+01
          0                 2           2             4    7     1      -0.3692475909E-02       4    7    1        -0.1997627409E+00      0.4216225595E+00
          0                 3           2             4    7     1       0.2514436176E-03       4    7    1         0.1398337804E-01      0.2951347632E-01
          0                 4           1             4    7     1      -0.1000517850E-04       4    7    1        -0.5719210567E-03      0.1207104981E-02

    ------------------------------------------------
       NWT REQUIRED            4 OUTER ITERATIONS 
       AND A TOTAL OF          7 INNER ITERATIONS.
    ------------------------------------------------

 NO OUTPUT CONTROL FOR STRESS PERIOD   48   TIME STEP   26
 
 SOLVING FOR HEAD 
                                                   Max.-Head-Change                         Max.-Flux-Residual
  Residual-Control   Outer-Iter.   Inner-Iter.     Column Row Layer    Maximum-Head-Change  Column Row Layer    Maximum-Flux-Residual          L2-NORM 
          0                 1           2             4    7     1       0.3748042441E-01       4    7    1         0.1972286216E+01      0.4171601156E+01
          0                 2           2             4    7     1      -0.3645853493E-02       4    7    1        -0.1972306694E+00      0.4171601585E+00
          0                 3           2             4    7     1       0.2482688111E-03       4    7    1         0.1380613344E-01      0.2920109667E-01
          0                 4           1             4    7     1      -0.9878849791E-05       4    7    1        -0.5646717352E-03      0.1194323184E-02

    ------------------------------------------------
       NWT REQUIRED            4 OUTER ITERATIONS 
       AND A TOTAL OF          7 INNER ITERATIONS.
    ------------------------------------------------

 NO OUTPUT CONTROL FOR STRESS PERIOD   48   TIME STEP   27
 
 SOLVING FOR HEAD 
                                                   Max.-Head-Change                         Max.-Flux-Residual
  Residual-Control   Outer-Iter.   Inner-Iter.     Column Row Layer    Maximum-Head-Change  Column Row Layer    Maximum-Flux-Residual          L2-NORM 
          0                 1           2             4    7     1       0.3700908636E-01       4    7    1         0.1947385001E+01      0.4127800894E+01
          0                 2           2             4    7     1      -0.3600004412E-02       4    7    1        -0.1947404975E+00      0.4127801249E+00
          0                 3           2             4    7     1       0.2451466660E-03       4    7    1         0.1363182182E-01      0.2889449184E-01
          0                 4           1             4    7     1      -0.9754616518E-05       4    7    1        -0.5575423725E-03      0.1181781834E-02

    ------------------------------------------------
       NWT REQUIRED            4 OUTER ITERATIONS 
       AND A TOTAL OF          7 INNER ITERATIONS.
    ------------------------------------------------

 NO OUTPUT CONTROL FOR STRESS PERIOD   48   TIME STEP   28
 
 SOLVING FOR HEAD 
                                                   Max.-Head-Change                         Max.-Flux-Residual
  Residual-Control   Outer-Iter.   Inner-Iter.     Column Row Layer    Maximum-Head-Change  Column Row Layer    Maximum-Flux-Residual          L2-NORM 
          0                 1           2             4    7     1       0.3654569894E-01       4    7    1         0.1922903237E+01      0.4084796325E+01
          0                 2           2             4    7     1      -0.3554928727E-02       4    7    1        -0.1922922719E+00      0.4084795975E+00
          0                 3           2             4    7     1       0.2420771859E-03       4    7    1         0.1346044641E-01      0.2859342100E-01
          0                 4           1             4    7     1      -0.9632479259E-05       4    7    1        -0.5505331035E-03      0.1169465150E-02

    ------------------------------------------------
       NWT REQUIRED            4 OUTER ITERATIONS 
       AND A TOTAL OF          7 INNER ITERATIONS.
    ------------------------------------------------

 NO OUTPUT CONTROL FOR STRESS PERIOD   48   TIME STEP   29
 
 SOLVING FOR HEAD 
                                                   Max.-Head-Change                         Max.-Flux-Residual
  Residual-Control   Outer-Iter.   Inner-Iter.     Column Row Layer    Maximum-Head-Change  Column Row Layer    Maximum-Flux-Residual          L2-NORM 
          0                 1           2             4    7     1       0.3608986143E-01       4    7    1         0.1898819167E+01      0.4042576111E+01
          0                 2           2             4    7     1      -0.3510587460E-02       4    7    1        -0.1898838168E+00      0.4042576053E+00
          0                 3           2             4    7     1       0.2390577171E-03       4    7    1         0.1329185494E-01      0.2829792177E-01
          0                 4           1             4    7     1      -0.9512331635E-05       4    7    1        -0.5436377041E-03      0.1157385359E-02

    ------------------------------------------------
       NWT REQUIRED            4 OUTER ITERATIONS 
       AND A TOTAL OF          7 INNER ITERATIONS.
    ------------------------------------------------

 NO OUTPUT CONTROL FOR STRESS PERIOD   48   TIME STEP   30



 STREAM LISTING     PERIOD     48   STEP       30

 LAYER ROW COL. STREAM  RCH.  FLOW INTO     FLOW TO   FLOW OUT OF   OVRLND.     DIRECT     STREAM       STREAM     STREAM     STREAM   STREAMBED  STREAMBED
                SEG.NO.  NO.  STRM. RCH.    AQUIFER    STRM. RCH.    RUNOFF     PRECIP       ET          HEAD       DEPTH      WIDTH   CONDCTNC.   GRADIENT

   1    1    1     1     1    1.5750E+01  1.9239E-01   1.5557E+01  0.000E+00  0.000E+00  0.000E+00  1.09407E+03  1.025E+00  1.062E+01  4.780E-02  1.342E+00
   1    2    2     1     2    1.5557E+01  2.9659E-01   1.5261E+01  0.000E+00  0.000E+00  0.000E+00  1.08908E+03  1.020E+00  1.054E+01  7.378E-02  1.340E+00
   1    3    3     1     3    1.5261E+01  2.5163E-01   1.5009E+01  0.000E+00  0.000E+00  0.000E+00  1.08343E+03  1.015E+00  1.045E+01  6.268E-02  1.338E+00
   1    3    4     1     4    1.5009E+01  2.3063E-01   1.4778E+01  0.000E+00  0.000E+00  0.000E+00  1.07842E+03  1.010E+00  1.036E+01  5.751E-02  1.337E+00
   1    4    5     2     1    1.2778E+01  2.9653E-01   1.2482E+01  0.000E+00  0.000E+00  0.000E+00  1.07274E+03  8.017E-01  1.200E+01  7.800E-02  1.267E+00
   1    5    6     2     2    1.2482E+01  2.2750E-01   1.2254E+01  0.000E+00  0.000E+00  0.000E+00  1.06730E+03  7.916E-01  1.200E+01  6.000E-02  1.264E+00
   1    6    6     2     3    1.2254E+01  2.2697E-01   1.2027E+01  0.000E+00  0.000E+00  0.000E+00  1.06258E+03  7.829E-01  1.200E+01  6.000E-02  1.261E+00
   1    7    6     2     4    1.2027E+01  2.2644E-01   1.1801E+01  0.000E+00  0.000E+00  0.000E+00  1.05785E+03  7.741E-01  1.200E+01  6.000E-02  1.258E+00
   1    8    6     2     5    1.1801E+01  2.2591E-01   1.1575E+01  0.000E+00  0.000E+00  0.000E+00  1.05312E+03  7.652E-01  1.200E+01  6.000E-02  1.255E+00
   1    3    5     3     1    2.0000E+00  2.8252E-01   1.7175E+00  0.000E+00  0.000E+00  0.000E+00  1.07555E+03  1.909E+00  9.636E+00  7.227E-02  1.955E+00
   1    3    6     3     2    1.7175E+00  2.4905E-01   1.4684E+00  0.000E+00  0.000E+00  0.000E+00  1.07264E+03  1.727E+00  8.909E+00  6.682E-02  1.864E+00
   1    3    7     3     3    1.4684E+00  1.9718E-01   1.2712E+00  0.000E+00  0.000E+00  0.000E+00  1.06987E+03  1.555E+00  8.218E+00  5.547E-02  1.777E+00
   1    4    8     3     4    1.2712E+00  2.2567E-01   1.0456E+00  0.000E+00  0.000E+00  0.000E+00  1.06682E+03  1.364E+00  7.455E+00  6.709E-02  1.682E+00
   1    5    8     3     5    1.0456E+00  1.5790E-01   8.8768E-01  0.000E+00  0.000E+00  0.000E+00  1.06362E+03  1.164E+00  6.655E+00  4.991E-02  1.582E+00
   1    6    8     3     6    8.8768E-01  5.5980E-02   8.3170E-01  0.000E+00  0.000E+00  0.000E+00  1.06158E+03  1.036E+00  6.145E+00  1.844E-02  1.518E+00
   1    5   10     4     1    1.0000E+01  9.0919E-02   9.9091E+00  0.000E+00  0.000E+00  0.000E+00  1.07836E+03  6.368E-01  1.000E+01  2.500E-02  1.212E+00
   1    5    9     4     2    9.9091E+00  1.8158E-01   9.7275E+00  0.000E+00  0.000E+00  0.000E+00  1.07154E+03  6.315E-01  1.000E+01  5.000E-02  1.211E+00
   1    6    8     4     3    9.7275E+00  1.2689E-01   9.6006E+00  0.000E+00  0.000E+00  0.000E+00  1.06381E+03  6.256E-01  1.000E+01  3.500E-02  1.209E+00
   1    6    8     5     1    1.0432E+01  2.2686E-01   1.0205E+01  0.000E+00  0.000E+00  0.000E+00  1.05868E+03  6.790E-01  1.542E+01  6.166E-02  1.226E+00
   1    7    7     5     2    1.0205E+01  2.7894E-01   9.9265E+00  0.000E+00  0.000E+00  0.000E+00  1.05417E+03  6.732E-01  1.519E+01  7.594E-02  1.224E+00
   1    8    7     5     3    9.9265E+00  1.9221E-01   9.7343E+00  0.000E+00  0.000E+00  0.000E+00  1.04992E+03  6.676E-01  1.497E+01  5.241E-02  1.223E+00
   1    8    6     5     4    9.7343E+00  1.3577E-01   9.5985E+00  0.000E+00  0.000E+00  0.000E+00  1.04691E+03  6.637E-01  1.482E+01  3.706E-02  1.221E+00
   1    9    6     6     1    2.1173E+01  2.4608E-01   2.0927E+01  0.000E+00  0.000E+00  0.000E+00  1.04383E+03  1.101E+00  1.200E+01  6.000E-02  1.367E+00
   1   10    7     6     2    2.0927E+01  2.4562E-01   2.0682E+01  0.000E+00  0.000E+00  0.000E+00  1.03928E+03  1.094E+00  1.200E+01  6.000E-02  1.365E+00
   1   11    7     6     3    2.0682E+01  2.4515E-01   2.0437E+01  0.000E+00  0.000E+00  0.000E+00  1.03472E+03  1.086E+00  1.200E+01  6.000E-02  1.362E+00
   1   12    7     6     4    2.0437E+01  2.4468E-01   2.0192E+01  0.000E+00  0.000E+00  0.000E+00  1.03017E+03  1.078E+00  1.200E+01  6.000E-02  1.359E+00
   1   13    7     6     5    2.0192E+01  9.8512E-03   2.0182E+01  0.000E+00  0.000E+00  0.000E+00  1.02698E+03  1.074E+00  1.200E+01  2.400E-02  1.368E-01
   1   14    9     7     1    1.5000E+02  1.3817E+00   1.4862E+02  0.000E+00  0.000E+00  0.000E+00  1.03987E+03  2.288E+00  5.529E+01  5.593E-01  8.235E-01
   1   13    8     7     2    1.4862E+02  1.9916E+00   1.4663E+02  0.000E+00  0.000E+00  0.000E+00  1.03478E+03  2.279E+00  5.525E+01  6.147E-01  1.080E+00
   1   13    7     7     3    1.4663E+02  1.7395E+00   1.4489E+02  0.000E+00  0.000E+00  0.000E+00  1.02969E+03  2.269E+00  5.521E+01  5.584E-01  1.038E+00
   1   13    6     8     1    1.6507E+02  1.1563E+00   1.6391E+02  0.000E+00  0.000E+00  0.000E+00  1.02479E+03  2.916E+00  4.228E+01  4.309E-01  8.945E-01
   1   13    5     8     2    1.6391E+02  3.9879E-01   1.6351E+02  0.000E+00  0.000E+00  0.000E+00  1.01854E+03  2.911E+00  4.221E+01  4.301E-01  3.091E-01
   1   13    4     8     3    1.6351E+02 -1.6681E+00   1.6518E+02  0.000E+00  0.000E+00  0.000E+00  1.01229E+03  2.915E+00  4.227E+01  4.307E+00 -1.291E-01
   1   13    3     8     4    1.6518E+02 -3.2827E+00   1.6847E+02  0.000E+00  0.000E+00  0.000E+00  1.00606E+03  2.931E+00  4.251E+01  4.331E+00 -2.526E-01
   1   13    2     8     5    1.6847E+02 -2.4924E+00   1.7096E+02  0.000E+00  0.000E+00  0.000E+00  9.99825E+02  2.950E+00  4.278E+01  4.359E+00 -1.906E-01
   1   13    1     8     6    1.7096E+02 -1.9665E+00   1.7292E+02  0.000E+00  0.000E+00  0.000E+00  9.94840E+02  2.965E+00  4.299E+01  2.628E+00 -2.494E-01
   1    8    6     9     1    0.0000E+00  0.0000E+00   0.0000E+00  0.000E+00  0.000E+00  0.000E+00  1.07875E+03  0.000E+00  4.000E+00  0.000E+00  1.000E+00
   1    8    5     9     2    0.0000E+00  0.0000E+00   0.0000E+00  0.000E+00  0.000E+00  0.000E+00  1.07825E+03  0.000E+00  4.000E+00  0.000E+00  1.000E+00





UNSATURATED ZONE PACKAGE VOLUMETRIC BUDGET FOR  TIME STEP    30 STRESS PERIOD   48
  ------------------------------------------------------------------------------



     CUMULATIVE VOLUMES      L**3       RATES FOR THIS TIME STEP      L**3/T
     ------------------                 ------------------------

           IN:                                      IN:
           ---                                      ---
        INFILTRATION =  1704609578.0755          INFILTRATION =           0.8475

          OUT:                                     OUT:
          ----                                     ----
              UZF ET =  1703527588.3810                UZF ET =           0.7500
        UZF RECHARGE =       73224.0000          UZF RECHARGE =       0.0000E+00

            IN - OUT =     1008765.6945              IN - OUT =       9.7500E-02

          STORAGE:                                 STORAGE:
          --------                                 --------
      STORAGE CHANGE =     1008765.8636        STORAGE CHANGE =       9.7500E-02

 PERCENT DISCREPANCY IS DIFFERENCE BETWEEN IN-OUT MINUS CHANGE IN STORAGE
 DIVIDED BY THE AVERAGE OF IN AND OUT TIMES 100

 PERCENT DISCREPANCY =           0.00     PERCENT DISCREPANCY =           0.00






1
  VOLUMETRIC BUDGET FOR AGRICULTURAL FIELDS AT  END OF TIME STEP   30, STRESS PERIOD  48
  ------------------------------------------------------------------------------

     CUMULATIVE VOLUMES      L**3       RATES FOR THIS TIME STEP      L**3/T
     ------------------                 ------------------------

           IN:                                      IN:
           ---                                      ---
               AG WELLS  =  1599775104.0000                 AG WELLS  =           0.0000
      DIVERSION SEGMENTS =           0.0000        DIVERSION SEGMENTS =           0.0000
       IRRIGATION PONDS  =           0.0000         IRRIGATION PONDS  =           0.0000
           GW IRRIGATION =           0.0000             GW IRRIGATION =           0.0000
           SW IRRIGATION =           0.0000             SW IRRIGATION =           0.0000
        SYSTEM LOSSES GW =           0.0000          SYSTEM LOSSES GW =           0.0000
        SYSTEM LOSSES SW =           0.0000          SYSTEM LOSSES SW =           0.0000

                TOTAL IN =  1599775104.0000                  TOTAL IN =           0.0000

          OUT:                                     OUT:
          ----                                     ----
               AG WELLS  =           0.0000                 AG WELLS  =           0.0000
      DIVERSION SEGMENTS =           0.0000        DIVERSION SEGMENTS =           0.0000
       IRRIGATION PONDS  =           0.0000         IRRIGATION PONDS  =           0.0000
           GW IRRIGATION =  1599775104.0000             GW IRRIGATION =           0.0000
           SW IRRIGATION =           0.0000             SW IRRIGATION =           0.0000
        SYSTEM LOSSES GW =           0.0000          SYSTEM LOSSES GW =           0.0000
        SYSTEM LOSSES SW =           0.0000          SYSTEM LOSSES SW =           0.0000

               TOTAL OUT =  1599775104.0000                 TOTAL OUT =           0.0000

                IN - OUT =           0.0000                  IN - OUT =           0.0000

     PERCENT DISCREPANCY =           0.00         PERCENT DISCREPANCY =           0.00



1
  VOLUMETRIC BUDGET FOR ENTIRE MODEL AT END OF TIME STEP   30, STRESS PERIOD  48
  ------------------------------------------------------------------------------

     CUMULATIVE VOLUMES      L**3       RATES FOR THIS TIME STEP      L**3/T
     ------------------                 ------------------------

           IN:                                      IN:
           ---                                      ---
             STORAGE     =  2161428992.0000               STORAGE     =           9.5434
       CONSTANT HEAD     =           0.0000         CONSTANT HEAD     =           0.0000
     HEAD DEP BOUNDS     =    35458296.0000       HEAD DEP BOUNDS     =           0.2889
      STREAM LEAKAGE     =  1537790720.0000        STREAM LEAKAGE     =          12.2353
        UZF RECHARGE     =       73223.9531          UZF RECHARGE     =           0.0000
               GW ET     =           0.0000                 GW ET     =           0.0000
     SURFACE LEAKAGE     =           0.0000       SURFACE LEAKAGE     =           0.0000
           AG WELLS      =           0.0000             AG WELLS      =           0.0000

                TOTAL IN =  3734751232.0000                  TOTAL IN =          22.0677

          OUT:                                     OUT:
          ----                                     ----
             STORAGE     =   845100416.0000               STORAGE     =          12.3695
       CONSTANT HEAD     =           0.0000         CONSTANT HEAD     =           0.0000
     HEAD DEP BOUNDS     =    36122048.0000       HEAD DEP BOUNDS     =           0.2883
      STREAM LEAKAGE     =  1245350656.0000        STREAM LEAKAGE     =           9.4098
        UZF RECHARGE     =           0.0000          UZF RECHARGE     =           0.0000
               GW ET     =     8413934.0000                 GW ET     =           0.0000
     SURFACE LEAKAGE     =           0.0000       SURFACE LEAKAGE     =           0.0000
           AG WELLS      =  1599775104.0000             AG WELLS      =           0.0000

               TOTAL OUT =  3734761984.0000                 TOTAL OUT =          22.0676

                IN - OUT =      -10752.0000                  IN - OUT =       1.3351E-05

     PERCENT DISCREPANCY =          -0.00         PERCENT DISCREPANCY =           0.00






         TIME SUMMARY AT END OF TIME STEP   30 IN STRESS PERIOD   48
                    SECONDS     MINUTES      HOURS       DAYS        YEARS
                    -----------------------------------------------------------
   TIME STEP LENGTH  87667.      1461.1      24.352      1.0147     2.77799E-03
 STRESS PERIOD TIME 2.63000E+06  43833.      730.56      30.440     8.33397E-02
         TOTAL TIME 1.23695E+08 2.06158E+06  34360.      1431.7      3.9197    
1
1
                            STRESS PERIOD NO.   49, LENGTH =   2630000.    
                            -----------------------------------------------

                              NUMBER OF TIME STEPS =    30

                               MULTIPLIER FOR DELT =     1.000

                            INITIAL TIME STEP SIZE =   87666.66    

 REUSING NON-PARAMETER GHB CELLS FROM LAST STRESS PERIOD

      2 GHB CELLS

 REUSING STREAM SEGMENT DATA FROM LAST STRESS PERIOD



            AREAL INFILTRATION RATE
 READING ON UNIT   19 WITH FORMAT: (FREE)              

            1           2           3           4           5           6           7           8           9          10
 ........................................................................................................................
   1   1.0000E-10  2.0000E-10   0.000       0.000       0.000       0.000       0.000       0.000       0.000       0.000    
   2   2.0000E-10  1.0000E-10  2.0000E-10   0.000       0.000      8.0000E-10  8.0000E-10  5.0000E-10   0.000       0.000    
   3    0.000      5.0000E-10  1.0000E-10  1.0000E-10  8.0000E-10  8.0000E-10  5.0000E-10  5.0000E-10   0.000       0.000    
   4   8.0000E-10  5.0000E-10  1.0000E-10  1.0000E-10  1.0000E-10  1.0000E-10  1.0000E-10  1.0000E-10  2.0000E-10   0.000    
   5   8.0000E-10  5.0000E-10  1.0000E-10  1.0000E-10  1.0000E-10  1.0000E-10  1.0000E-10  1.0000E-10  1.0000E-10  1.0000E-10
   6   8.0000E-10  5.0000E-10  5.0000E-10  2.0000E-10  2.0000E-10  1.0000E-10  1.0000E-10  1.0000E-10  1.0000E-10  5.0000E-10
   7   8.0000E-10  5.0000E-10  5.0000E-10  2.0000E-10  2.0000E-10  1.0000E-10  1.0000E-10  2.0000E-10  2.0000E-10   0.000    
   8    0.000      5.0000E-10  5.0000E-10  2.0000E-10  2.0000E-10  1.0000E-10  1.0000E-10  2.0000E-10  5.0000E-10   0.000    
   9    0.000      5.0000E-10  5.0000E-10  2.0000E-10  2.0000E-10  1.0000E-10  1.0000E-10  2.0000E-10  5.0000E-10   0.000    
  10    0.000      5.0000E-10  5.0000E-10  2.0000E-10  2.0000E-10  1.0000E-10  1.0000E-10  2.0000E-10  5.0000E-10  8.0000E-10
  11    0.000      1.0000E-10  1.0000E-10  1.0000E-10  1.0000E-10  1.0000E-10  1.0000E-10  2.0000E-10  5.0000E-10   0.000    
  12   1.0000E-10  1.0000E-10  1.0000E-10  1.0000E-10  1.0000E-10  1.0000E-10  1.0000E-10  1.0000E-10  2.0000E-10   0.000    
  13   1.0000E-10  1.0000E-10  2.0000E-10  2.0000E-10  2.0000E-10  2.0000E-10  2.0000E-10  1.0000E-10  1.0000E-10   0.000    
  14    0.000      2.0000E-10  5.0000E-10  5.0000E-10  5.0000E-10  5.0000E-10  5.0000E-10  2.0000E-10  1.0000E-10   0.000    
  15    0.000       0.000      8.0000E-10  8.0000E-10  8.0000E-10  8.0000E-10   0.000       0.000       0.000       0.000    

                  ET RATE =  5.000000E-10

 USING ET EXTINCTION DEPTH FROM PREVIOUS STRESS PERIOD. CURRENT PERIOD IS:      49

 USING EXTINCTION WATER CONTENT FROM PREVIOUS STRESS PERIOD. CURRENT PERIOD IS:      49

 USING AIR ENTRY PRESSURE FROM PREVIOUS STRESS PERIOD. CURRENT PERIOD IS:      49

 USING ROOT PRESSURE HEAD FROM PREVIOUS STRESS PERIOD. CURRENT PERIOD IS:      49

 USING ROOT ACTIVITY FROM PREVIOUS STRESS PERIOD. CURRENT PERIOD IS:      49

 PROCESSING AG STRESS PERIOD DATA

 READING AG STRESS PERIOD DATA

 READING IRRIGATION SEGMENT

 READING IRRIGATION WELL

 READING SUPPLEMENTAL WELL

 NO IRRPOND OR REUSING IRRPOND DATA FROM LAST STRESS PERIOD

 END PROCESSING AG STRESS PERIOD DATA OPTIONS
 
 SOLVING FOR HEAD 
                                                   Max.-Head-Change                         Max.-Flux-Residual
  Residual-Control   Outer-Iter.   Inner-Iter.     Column Row Layer    Maximum-Head-Change  Column Row Layer    Maximum-Flux-Residual          L2-NORM 
          0                 1           2             4    7     1       0.3564158437E-01       4    7    1         0.1875133804E+01      0.4001111531E+01
          0                 2           2             4    7     1      -0.3466981637E-02       4    7    1        -0.1875152337E+00      0.4001111301E+00
          0                 3           2             4    7     1       0.2360883288E-03       4    7    1         0.1312605450E-01      0.2800766748E-01
          0                 4           1             4    7     1      -0.9394176639E-05       4    7    1        -0.5368564473E-03      0.1145514955E-02

    ------------------------------------------------
       NWT REQUIRED            4 OUTER ITERATIONS 
       AND A TOTAL OF          7 INNER ITERATIONS.
    ------------------------------------------------

 NO OUTPUT CONTROL FOR STRESS PERIOD   49   TIME STEP    1
 
 SOLVING FOR HEAD 
                                                   Max.-Head-Change                         Max.-Flux-Residual
  Residual-Control   Outer-Iter.   Inner-Iter.     Column Row Layer    Maximum-Head-Change  Column Row Layer    Maximum-Flux-Residual          L2-NORM 
          0                 1           2             4    7     1       0.3520087191E-01       4    7    1         0.1851847699E+01      0.3960393373E+01
          0                 2           2             4    7     1      -0.3424111659E-02       4    7    1        -0.1851865775E+00      0.3960393063E+00
          0                 3           2             4    7     1       0.2331690489E-03       4    7    1         0.1296304892E-01      0.2772264953E-01
          0                 4           1             4    7     1      -0.9278016114E-05       4    7    1        -0.5301895194E-03      0.1133853959E-02

    ------------------------------------------------
       NWT REQUIRED            4 OUTER ITERATIONS 
       AND A TOTAL OF          7 INNER ITERATIONS.
    ------------------------------------------------

 NO OUTPUT CONTROL FOR STRESS PERIOD   49   TIME STEP    2
 
 SOLVING FOR HEAD 
                                                   Max.-Head-Change                         Max.-Flux-Residual
  Residual-Control   Outer-Iter.   Inner-Iter.     Column Row Layer    Maximum-Head-Change  Column Row Layer    Maximum-Flux-Residual          L2-NORM 
          0                 1           2             4    7     1       0.3476758742E-01       4    7    1         0.1828953802E+01      0.3920400044E+01
          0                 2           2             4    7     1      -0.3381964238E-02       4    7    1        -0.1828971433E+00      0.3920397371E+00
          0                 3           2             4    7     1       0.2302989724E-03       4    7    1         0.1280278888E-01      0.2744247725E-01
          0                 4           1             4    7     1      -0.9163813103E-05       4    7    1        -0.5236348757E-03      0.1122392763E-02

    ------------------------------------------------
       NWT REQUIRED            4 OUTER ITERATIONS 
       AND A TOTAL OF          7 INNER ITERATIONS.
    ------------------------------------------------

 NO OUTPUT CONTROL FOR STRESS PERIOD   49   TIME STEP    3
 
 SOLVING FOR HEAD 
                                                   Max.-Head-Change                         Max.-Flux-Residual
  Residual-Control   Outer-Iter.   Inner-Iter.     Column Row Layer    Maximum-Head-Change  Column Row Layer    Maximum-Flux-Residual          L2-NORM 
          0                 1           2             4    7     1       0.3434132455E-01       4    7    1         0.1806430496E+01      0.3881886739E+01
          0                 2           2             4    7     1      -0.3340499845E-02       4    7    1        -0.1806447692E+00      0.3881875946E+00
          0                 3           2             4    7     1       0.2274754067E-03       4    7    1         0.1264512301E-01      0.2717292357E-01
          0                 4           1             4    7     1      -0.9051460653E-05       4    7    1        -0.5171863297E-03      0.1111358128E-02

    ------------------------------------------------
       NWT REQUIRED            4 OUTER ITERATIONS 
       AND A TOTAL OF          7 INNER ITERATIONS.
    ------------------------------------------------

 NO OUTPUT CONTROL FOR STRESS PERIOD   49   TIME STEP    4
 
 SOLVING FOR HEAD 
                                                   Max.-Head-Change                         Max.-Flux-Residual
  Residual-Control   Outer-Iter.   Inner-Iter.     Column Row Layer    Maximum-Head-Change  Column Row Layer    Maximum-Flux-Residual          L2-NORM 
          0                 1           2             4    7     1       0.3392236275E-01       4    7    1         0.1784293044E+01      0.3844053167E+01
          0                 2           2             4    7     1      -0.3299745663E-02       4    7    1        -0.1784309817E+00      0.3844031067E+00
          0                 3           2             4    7     1       0.2247002040E-03       4    7    1         0.1249015823E-01      0.2690791831E-01
          0                 4           1             4    7     1      -0.8941032447E-05       4    7    1        -0.5108482476E-03      0.1100518007E-02

    ------------------------------------------------
       NWT REQUIRED            4 OUTER ITERATIONS 
       AND A TOTAL OF          7 INNER ITERATIONS.
    ------------------------------------------------

 NO OUTPUT CONTROL FOR STRESS PERIOD   49   TIME STEP    5
 
 SOLVING FOR HEAD 
                                                   Max.-Head-Change                         Max.-Flux-Residual
  Residual-Control   Outer-Iter.   Inner-Iter.     Column Row Layer    Maximum-Head-Change  Column Row Layer    Maximum-Flux-Residual          L2-NORM 
          0                 1           2             4    7     1       0.3351029432E-01       4    7    1         0.1762519602E+01      0.3806084261E+01
          0                 2           2             4    7     1      -0.3259662034E-02       4    7    1        -0.1762535963E+00      0.3806064304E+00
          0                 3           2             4    7     1       0.2219706636E-03       4    7    1         0.1233774157E-01      0.2664218964E-01
          0                 4           1             4    7     1      -0.8832421759E-05       4    7    1        -0.5046144142E-03      0.1089656180E-02

    ------------------------------------------------
       NWT REQUIRED            4 OUTER ITERATIONS 
       AND A TOTAL OF          7 INNER ITERATIONS.
    ------------------------------------------------

 NO OUTPUT CONTROL FOR STRESS PERIOD   49   TIME STEP    6
 
 SOLVING FOR HEAD 
                                                   Max.-Head-Change                         Max.-Flux-Residual
  Residual-Control   Outer-Iter.   Inner-Iter.     Column Row Layer    Maximum-Head-Change  Column Row Layer    Maximum-Flux-Residual          L2-NORM 
          0                 1           2             4    7     1       0.3310512965E-01       4    7    1         0.1741110833E+01      0.3768778832E+01
          0                 2           2             4    7     1      -0.3220249968E-02       4    7    1        -0.1741126792E+00      0.3768760357E+00
          0                 3           2             4    7     1       0.2192868538E-03       4    7    1         0.1218787771E-01      0.2638108058E-01
          0                 4           1             4    7     1      -0.8725630088E-05       4    7    1        -0.4984849591E-03      0.1078966313E-02

    ------------------------------------------------
       NWT REQUIRED            4 OUTER ITERATIONS 
       AND A TOTAL OF          7 INNER ITERATIONS.
    ------------------------------------------------

 NO OUTPUT CONTROL FOR STRESS PERIOD   49   TIME STEP    7
 
 SOLVING FOR HEAD 
                                                   Max.-Head-Change                         Max.-Flux-Residual
  Residual-Control   Outer-Iter.   Inner-Iter.     Column Row Layer    Maximum-Head-Change  Column Row Layer    Maximum-Flux-Residual          L2-NORM 
          0                 1           2             4    7     1       0.3270673797E-01       4    7    1         0.1720060009E+01      0.3732111804E+01
          0                 2           2             4    7     1      -0.3181496745E-02       4    7    1        -0.1720075577E+00      0.3732094356E+00
          0                 3           2             4    7     1       0.2166479086E-03       4    7    1         0.1204051951E-01      0.2612442796E-01
          0                 4           1             4    7     1      -0.8620623930E-05       4    7    1        -0.4924579964E-03      0.1068473477E-02

    ------------------------------------------------
       NWT REQUIRED            4 OUTER ITERATIONS 
       AND A TOTAL OF          7 INNER ITERATIONS.
    ------------------------------------------------

 NO OUTPUT CONTROL FOR STRESS PERIOD   49   TIME STEP    8
 
 SOLVING FOR HEAD 
                                                   Max.-Head-Change                         Max.-Flux-Residual
  Residual-Control   Outer-Iter.   Inner-Iter.     Column Row Layer    Maximum-Head-Change  Column Row Layer    Maximum-Flux-Residual          L2-NORM 
          0                 1           2             4    7     1       0.3231512583E-01       4    7    1         0.1699367619E+01      0.3696084208E+01
          0                 2           2             4    7     1      -0.3143403001E-02       4    7    1        -0.1699382805E+00      0.3696067911E+00
          0                 3           2             4    7     1       0.2140538716E-03       4    7    1         0.1189567041E-01      0.2587223092E-01
          0                 4           1             4    7     1      -0.8517405014E-05       4    7    1        -0.4865336609E-03      0.1058168300E-02

    ------------------------------------------------
       NWT REQUIRED            4 OUTER ITERATIONS 
       AND A TOTAL OF          7 INNER ITERATIONS.
    ------------------------------------------------

 NO OUTPUT CONTROL FOR STRESS PERIOD   49   TIME STEP    9
 
 SOLVING FOR HEAD 
                                                   Max.-Head-Change                         Max.-Flux-Residual
  Residual-Control   Outer-Iter.   Inner-Iter.     Column Row Layer    Maximum-Head-Change  Column Row Layer    Maximum-Flux-Residual          L2-NORM 
          0                 1           2             4    7     1       0.3192989090E-01       4    7    1         0.1679012195E+01      0.3660655646E+01
          0                 2           2             4    7     1      -0.3105929599E-02       4    7    1        -0.1679027010E+00      0.3660640371E+00
          0                 3           2             4    7     1       0.2115020771E-03       4    7    1         0.1175318013E-01      0.2562422655E-01
          0                 4           1             4    7     1      -0.8415866615E-05       4    7    1        -0.4807057974E-03      0.1048006439E-02

    ------------------------------------------------
       NWT REQUIRED            4 OUTER ITERATIONS 
       AND A TOTAL OF          7 INNER ITERATIONS.
    ------------------------------------------------

 NO OUTPUT CONTROL FOR STRESS PERIOD   49   TIME STEP   10
 
 SOLVING FOR HEAD 
                                                   Max.-Head-Change                         Max.-Flux-Residual
  Residual-Control   Outer-Iter.   Inner-Iter.     Column Row Layer    Maximum-Head-Change  Column Row Layer    Maximum-Flux-Residual          L2-NORM 
          0                 1           2             4    7     1       0.3155105064E-01       4    7    1         0.1658994684E+01      0.3625828937E+01
          0                 2           2             4    7     1      -0.3069078239E-02       4    7    1        -0.1659009136E+00      0.3625814658E+00
          0                 3           2             4    7     1       0.2089926413E-03       4    7    1         0.1161305530E-01      0.2538051335E-01
          0                 4           1             4    7     1      -0.8316013799E-05       4    7    1        -0.4749746827E-03      0.1038060679E-02

    ------------------------------------------------
       NWT REQUIRED            4 OUTER ITERATIONS 
       AND A TOTAL OF          7 INNER ITERATIONS.
    ------------------------------------------------

 NO OUTPUT CONTROL FOR STRESS PERIOD   49   TIME STEP   11
 
 SOLVING FOR HEAD 
                                                   Max.-Head-Change                         Max.-Flux-Residual
  Residual-Control   Outer-Iter.   Inner-Iter.     Column Row Layer    Maximum-Head-Change  Column Row Layer    Maximum-Flux-Residual          L2-NORM 
          0                 1           2             4    7     1       0.3117861579E-01       4    7    1         0.1639315993E+01      0.3591589909E+01
          0                 2           2             4    7     1      -0.3032849965E-02       4    7    1        -0.1639330093E+00      0.3591576407E+00
          0                 3           2             4    7     1       0.2065256355E-03       4    7    1         0.1147530227E-01      0.2514084905E-01
          0                 4           1             4    7     1      -0.8217849445E-05       4    7    1        -0.4693405931E-03      0.1028261360E-02

    ------------------------------------------------
       NWT REQUIRED            4 OUTER ITERATIONS 
       AND A TOTAL OF          7 INNER ITERATIONS.
    ------------------------------------------------

 NO OUTPUT CONTROL FOR STRESS PERIOD   49   TIME STEP   12
 
 SOLVING FOR HEAD 
                                                   Max.-Head-Change                         Max.-Flux-Residual
  Residual-Control   Outer-Iter.   Inner-Iter.     Column Row Layer    Maximum-Head-Change  Column Row Layer    Maximum-Flux-Residual          L2-NORM 
          0                 1           2             4    7     1       0.3081245730E-01       4    7    1         0.1619969410E+01      0.3557921860E+01
          0                 2           2             4    7     1      -0.2997232223E-02       4    7    1        -0.1619983168E+00      0.3557909051E+00
          0                 3           2             4    7     1       0.2041002039E-03       4    7    1         0.1133987405E-01      0.2490517169E-01
          0                 4           1             4    7     1      -0.8121339129E-05       4    7    1        -0.4638015450E-03      0.1018630318E-02

    ------------------------------------------------
       NWT REQUIRED            4 OUTER ITERATIONS 
       AND A TOTAL OF          7 INNER ITERATIONS.
    ------------------------------------------------

 NO OUTPUT CONTROL FOR STRESS PERIOD   49   TIME STEP   13
 
 SOLVING FOR HEAD 
                                                   Max.-Head-Change                         Max.-Flux-Residual
  Residual-Control   Outer-Iter.   Inner-Iter.     Column Row Layer    Maximum-Head-Change  Column Row Layer    Maximum-Flux-Residual          L2-NORM 
          0                 1           2             4    7     1       0.3045231593E-01       4    7    1         0.1600940972E+01      0.3524808827E+01
          0                 2           2             4    7     1      -0.2962199796E-02       4    7    1        -0.1600954395E+00      0.3524796784E+00
          0                 3           2             4    7     1       0.2017146304E-03       4    7    1         0.1120667290E-01      0.2467341267E-01
          0                 4           1             4    7     1      -0.8026414695E-05       4    7    1        -0.4583536208E-03      0.1009135676E-02

    ------------------------------------------------
       NWT REQUIRED            4 OUTER ITERATIONS 
       AND A TOTAL OF          7 INNER ITERATIONS.
    ------------------------------------------------

 NO OUTPUT CONTROL FOR STRESS PERIOD   49   TIME STEP   14
 
 SOLVING FOR HEAD 
                                                   Max.-Head-Change                         Max.-Flux-Residual
  Residual-Control   Outer-Iter.   Inner-Iter.     Column Row Layer    Maximum-Head-Change  Column Row Layer    Maximum-Flux-Residual          L2-NORM 
          0                 1           2             4    7     1       0.3009807507E-01       4    7    1         0.1582224508E+01      0.3492237223E+01
          0                 2           2             4    7     1      -0.2927741340E-02       4    7    1        -0.1582237606E+00      0.3492225614E+00
          0                 3           2             4    7     1       0.1993681418E-03       4    7    1         0.1107565562E-01      0.2444540578E-01
          0                 4           1             4    7     1      -0.7933045981E-05       4    7    1        -0.4529949995E-03      0.9998061651E-03

    ------------------------------------------------
       NWT REQUIRED            4 OUTER ITERATIONS 
       AND A TOTAL OF          7 INNER ITERATIONS.
    ------------------------------------------------

 NO OUTPUT CONTROL FOR STRESS PERIOD   49   TIME STEP   15
 
 SOLVING FOR HEAD 
                                                   Max.-Head-Change                         Max.-Flux-Residual
  Residual-Control   Outer-Iter.   Inner-Iter.     Column Row Layer    Maximum-Head-Change  Column Row Layer    Maximum-Flux-Residual          L2-NORM 
          0                 1           2             4    7     1       0.2974988562E-01       4    7    1         0.1563828518E+01      0.3460206010E+01
          0                 2           2             4    7     1      -0.2893871535E-02       4    7    1        -0.1563841299E+00      0.3460194934E+00
          0                 3           2             4    7     1       0.1970617382E-03       4    7    1         0.1094688171E-01      0.2422119223E-01
          0                 4           1             4    7     1      -0.7841271784E-05       4    7    1        -0.4477281400E-03      0.9907422001E-03

    ------------------------------------------------
       NWT REQUIRED            4 OUTER ITERATIONS 
       AND A TOTAL OF          7 INNER ITERATIONS.
    ------------------------------------------------

 NO OUTPUT CONTROL FOR STRESS PERIOD   49   TIME STEP   16
 
 SOLVING FOR HEAD 
                                                   Max.-Head-Change                         Max.-Flux-Residual
  Residual-Control   Outer-Iter.   Inner-Iter.     Column Row Layer    Maximum-Head-Change  Column Row Layer    Maximum-Flux-Residual          L2-NORM 
          0                 1           2             4    7     1       0.2940735383E-01       4    7    1         0.1545731736E+01      0.3428691018E+01
          0                 2           2             4    7     1      -0.2860551351E-02       4    7    1        -0.1545744209E+00      0.3428287389E+00
          0                 3           2             4    7     1       0.1947927620E-03       4    7    1         0.1082020233E-01      0.2399784319E-01
          0                 4           1             4    7     1      -0.7750987454E-05       4    7    1        -0.4425469613E-03      0.9814971408E-03

    ------------------------------------------------
       NWT REQUIRED            4 OUTER ITERATIONS 
       AND A TOTAL OF          7 INNER ITERATIONS.
    ------------------------------------------------

 NO OUTPUT CONTROL FOR STRESS PERIOD   49   TIME STEP   17
 
 SOLVING FOR HEAD 
                                                   Max.-Head-Change                         Max.-Flux-Residual
  Residual-Control   Outer-Iter.   Inner-Iter.     Column Row Layer    Maximum-Head-Change  Column Row Layer    Maximum-Flux-Residual          L2-NORM 
          0                 1           2             4    7     1       0.2907050585E-01       4    7    1         0.1527935603E+01      0.3397717089E+01
          0                 2           2             4    7     1      -0.2827785512E-02       4    7    1        -0.1527947775E+00      0.3397706890E+00
          0                 3           2             4    7     1       0.1925615341E-03       4    7    1         0.1069562753E-01      0.2378377555E-01
          0                 4           1             4    7     1      -0.7662204617E-05       4    7    1        -0.4374518335E-03      0.9727490708E-03

    ------------------------------------------------
       NWT REQUIRED            4 OUTER ITERATIONS 
       AND A TOTAL OF          7 INNER ITERATIONS.
    ------------------------------------------------

 NO OUTPUT CONTROL FOR STRESS PERIOD   49   TIME STEP   18
 
 SOLVING FOR HEAD 
                                                   Max.-Head-Change                         Max.-Flux-Residual
  Residual-Control   Outer-Iter.   Inner-Iter.     Column Row Layer    Maximum-Head-Change  Column Row Layer    Maximum-Flux-Residual          L2-NORM 
          0                 1           2             4    7     1       0.2873922423E-01       4    7    1         0.1510434087E+01      0.3367260151E+01
          0                 2           2             4    7     1      -0.2795560395E-02       4    7    1        -0.1510445967E+00      0.3367130664E+00
          0                 3           2             4    7     1       0.1903671276E-03       4    7    1         0.1057311510E-01      0.2356975944E-01
          0                 4           1             4    7     1      -0.7574887240E-05       4    7    1        -0.4324410756E-03      0.9639768279E-03

    ------------------------------------------------
       NWT REQUIRED            4 OUTER ITERATIONS 
       AND A TOTAL OF          7 INNER ITERATIONS.
    ------------------------------------------------

 NO OUTPUT CONTROL FOR STRESS PERIOD   49   TIME STEP   19
 
 SOLVING FOR HEAD 
                                                   Max.-Head-Change                         Max.-Flux-Residual
  Residual-Control   Outer-Iter.   Inner-Iter.     Column Row Layer    Maximum-Head-Change  Column Row Layer    Maximum-Flux-Residual          L2-NORM 
          0                 1           2             4    7     1       0.2841339622E-01       4    7    1         0.1493221215E+01      0.3337298948E+01
          0                 2           2             4    7     1      -0.2763865812E-02       4    7    1        -0.1493232810E+00      0.3337289587E+00
          0                 3           2             4    7     1       0.1882088477E-03       4    7    1         0.1045262321E-01      0.2336087114E-01
          0                 4           1             4    7     1      -0.7489007001E-05       4    7    1        -0.4275129293E-03      0.9554493286E-03

    ------------------------------------------------
       NWT REQUIRED            4 OUTER ITERATIONS 
       AND A TOTAL OF          7 INNER ITERATIONS.
    ------------------------------------------------

 NO OUTPUT CONTROL FOR STRESS PERIOD   49   TIME STEP   20
 
 SOLVING FOR HEAD 
                                                   Max.-Head-Change                         Max.-Flux-Residual
  Residual-Control   Outer-Iter.   Inner-Iter.     Column Row Layer    Maximum-Head-Change  Column Row Layer    Maximum-Flux-Residual          L2-NORM 
          0                 1           2             4    7     1       0.2809291304E-01       4    7    1         0.1476291100E+01      0.3307820498E+01
          0                 2           2             4    7     1      -0.2732691130E-02       4    7    1        -0.1476302417E+00      0.3307811512E+00
          0                 3           2             4    7     1       0.1860859716E-03       4    7    1         0.1033411068E-01      0.2315455555E-01
          0                 4           1             4    7     1      -0.7404536038E-05       4    7    1        -0.4226657711E-03      0.9470276411E-03

    ------------------------------------------------
       NWT REQUIRED            4 OUTER ITERATIONS 
       AND A TOTAL OF          7 INNER ITERATIONS.
    ------------------------------------------------

 NO OUTPUT CONTROL FOR STRESS PERIOD   49   TIME STEP   21
 
 SOLVING FOR HEAD 
                                                   Max.-Head-Change                         Max.-Flux-Residual
  Residual-Control   Outer-Iter.   Inner-Iter.     Column Row Layer    Maximum-Head-Change  Column Row Layer    Maximum-Flux-Residual          L2-NORM 
          0                 1           2             4    7     1       0.2777766335E-01       4    7    1         0.1459638104E+01      0.3278805757E+01
          0                 2           2             4    7     1      -0.2702025533E-02       4    7    1        -0.1459649151E+00      0.3278798195E+00
          0                 3           2             4    7     1       0.1839977622E-03       4    7    1         0.1021753803E-01      0.2295143787E-01
          0                 4           1             4    7     1      -0.7321444074E-05       4    7    1        -0.4178979366E-03      0.9387106692E-03

    ------------------------------------------------
       NWT REQUIRED            4 OUTER ITERATIONS 
       AND A TOTAL OF          7 INNER ITERATIONS.
    ------------------------------------------------

 NO OUTPUT CONTROL FOR STRESS PERIOD   49   TIME STEP   22
 
 SOLVING FOR HEAD 
                                                   Max.-Head-Change                         Max.-Flux-Residual
  Residual-Control   Outer-Iter.   Inner-Iter.     Column Row Layer    Maximum-Head-Change  Column Row Layer    Maximum-Flux-Residual          L2-NORM 
          0                 1           2             4    7     1       0.2746767710E-01       4    7    1         0.1443263730E+01      0.3250250691E+01
          0                 2           2             4    7     1      -0.2671871935E-02       4    7    1        -0.1443274514E+00      0.3250242070E+00
          0                 3           2             4    7     1       0.1819444174E-03       4    7    1         0.1010291575E-01      0.2275157030E-01
          0                 4           1             4    7     1      -0.7239739513E-05       4    7    1        -0.4132098857E-03      0.9305291555E-03

    ------------------------------------------------
       NWT REQUIRED            4 OUTER ITERATIONS 
       AND A TOTAL OF          7 INNER ITERATIONS.
    ------------------------------------------------

 NO OUTPUT CONTROL FOR STRESS PERIOD   49   TIME STEP   23
 
 SOLVING FOR HEAD 
                                                   Max.-Head-Change                         Max.-Flux-Residual
  Residual-Control   Outer-Iter.   Inner-Iter.     Column Row Layer    Maximum-Head-Change  Column Row Layer    Maximum-Flux-Residual          L2-NORM 
          0                 1           2             4    7     1       0.2716270840E-01       4    7    1         0.1427154978E+01      0.3222137629E+01
          0                 2           2             4    7     1      -0.2642206420E-02       4    7    1        -0.1427165507E+00      0.3222128985E+00
          0                 3           2             4    7     1       0.1799243093E-03       4    7    1         0.9990152905E-02      0.2255476566E-01
          0                 4           1             4    7     1      -0.7159356962E-05       4    7    1        -0.4085978453E-03      0.9224836669E-03

    ------------------------------------------------
       NWT REQUIRED            4 OUTER ITERATIONS 
       AND A TOTAL OF          7 INNER ITERATIONS.
    ------------------------------------------------

 NO OUTPUT CONTROL FOR STRESS PERIOD   49   TIME STEP   24
 
 SOLVING FOR HEAD 
                                                   Max.-Head-Change                         Max.-Flux-Residual
  Residual-Control   Outer-Iter.   Inner-Iter.     Column Row Layer    Maximum-Head-Change  Column Row Layer    Maximum-Flux-Residual          L2-NORM 
          0                 1           2             4    7     1       0.2686278912E-01       4    7    1         0.1411313654E+01      0.3194465032E+01
          0                 2           2             4    7     1      -0.2613032085E-02       4    7    1        -0.1411323933E+00      0.3194456642E+00
          0                 3           2             4    7     1       0.1779376490E-03       4    7    1         0.9879262066E-02      0.2236106151E-01
          0                 4           1             4    7     1      -0.7080306322E-05       4    7    1        -0.4040624258E-03      0.9145643683E-03

    ------------------------------------------------
       NWT REQUIRED            4 OUTER ITERATIONS 
       AND A TOTAL OF          7 INNER ITERATIONS.
    ------------------------------------------------

 NO OUTPUT CONTROL FOR STRESS PERIOD   49   TIME STEP   25
 
 SOLVING FOR HEAD 
                                                   Max.-Head-Change                         Max.-Flux-Residual
  Residual-Control   Outer-Iter.   Inner-Iter.     Column Row Layer    Maximum-Head-Change  Column Row Layer    Maximum-Flux-Residual          L2-NORM 
          0                 1           2             4    7     1       0.2656767727E-01       4    7    1         0.1395726855E+01      0.3167213573E+01
          0                 2           2             4    7     1      -0.2584325392E-02       4    7    1        -0.1395736892E+00      0.3167205157E+00
          0                 3           2             4    7     1       0.1759828331E-03       4    7    1         0.9770152958E-02      0.2217029269E-01
          0                 4           1             4    7     1      -0.7002522201E-05       4    7    1        -0.3995998559E-03      0.9067517452E-03

    ------------------------------------------------
       NWT REQUIRED            4 OUTER ITERATIONS 
       AND A TOTAL OF          7 INNER ITERATIONS.
    ------------------------------------------------

 NO OUTPUT CONTROL FOR STRESS PERIOD   49   TIME STEP   26
 
 SOLVING FOR HEAD 
                                                   Max.-Head-Change                         Max.-Flux-Residual
  Residual-Control   Outer-Iter.   Inner-Iter.     Column Row Layer    Maximum-Head-Change  Column Row Layer    Maximum-Flux-Residual          L2-NORM 
          0                 1           2             4    7     1       0.2627726677E-01       4    7    1         0.1380396589E+01      0.3199419704E+01
          0                 2           2             4    7     1      -0.2556076240E-02       4    7    1        -0.1380406393E+00      0.3198028629E+00
          0                 3           2             4    7     1       0.1740591740E-03       4    7    1         0.9662839645E-02      0.2237200764E-01
          0                 4           1             4    7     1      -0.6925978004E-05       4    7    1        -0.3952107295E-03      0.9140974739E-03

    ------------------------------------------------
       NWT REQUIRED            4 OUTER ITERATIONS 
       AND A TOTAL OF          7 INNER ITERATIONS.
    ------------------------------------------------

 NO OUTPUT CONTROL FOR STRESS PERIOD   49   TIME STEP   27
 
 SOLVING FOR HEAD 
                                                   Max.-Head-Change                         Max.-Flux-Residual
  Residual-Control   Outer-Iter.   Inner-Iter.     Column Row Layer    Maximum-Head-Change  Column Row Layer    Maximum-Flux-Residual          L2-NORM 
          0                 1           2             4    7     1       0.2599146602E-01       4    7    1         0.1365302789E+01      0.3115120302E+01
          0                 2           2             4    7     1      -0.2528275066E-02       4    7    1        -0.1365312362E+00      0.3115113170E+00
          0                 3           2             4    7     1       0.1721660204E-03       4    7    1         0.9557181600E-02      0.2180567985E-01
          0                 4           1             4    7     1      -0.6850647828E-05       4    7    1        -0.3908893148E-03      0.8918623139E-03

    ------------------------------------------------
       NWT REQUIRED            4 OUTER ITERATIONS 
       AND A TOTAL OF          7 INNER ITERATIONS.
    ------------------------------------------------

 NO OUTPUT CONTROL FOR STRESS PERIOD   49   TIME STEP   28
 
 SOLVING FOR HEAD 
                                                   Max.-Head-Change                         Max.-Flux-Residual
  Residual-Control   Outer-Iter.   Inner-Iter.     Column Row Layer    Maximum-Head-Change  Column Row Layer    Maximum-Flux-Residual          L2-NORM 
          0                 1           2             4    7     1       0.2571031566E-01       4    7    1         0.1350455297E+01      0.3089028374E+01
          0                 2           2             4    7     1      -0.2500926473E-02       4    7    1        -0.1350464646E+00      0.3089021048E+00
          0                 3           2             4    7     1       0.1703036859E-03       4    7    1         0.9453247773E-02      0.2162302320E-01
          0                 4           1             4    7     1      -0.6776543415E-05       4    7    1        -0.3866384002E-03      0.8843752542E-03

    ------------------------------------------------
       NWT REQUIRED            4 OUTER ITERATIONS 
       AND A TOTAL OF          7 INNER ITERATIONS.
    ------------------------------------------------

 NO OUTPUT CONTROL FOR STRESS PERIOD   49   TIME STEP   29
 
 SOLVING FOR HEAD 
                                                   Max.-Head-Change                         Max.-Flux-Residual
  Residual-Control   Outer-Iter.   Inner-Iter.     Column Row Layer    Maximum-Head-Change  Column Row Layer    Maximum-Flux-Residual          L2-NORM 
          0                 1           2             4    7     1       0.2543371778E-01       4    7    1         0.1335848907E+01      0.3063330987E+01
          0                 2           2             4    7     1      -0.2474020720E-02       4    7    1        -0.1335858039E+00      0.3063323953E+00
          0                 3           2             4    7     1       0.1684715069E-03       4    7    1         0.9351001667E-02      0.2144317887E-01
          0                 4           1             4    7     1      -0.6703639553E-05       4    7    1        -0.3824565426E-03      0.8770199100E-03

    ------------------------------------------------
       NWT REQUIRED            4 OUTER ITERATIONS 
       AND A TOTAL OF          7 INNER ITERATIONS.
    ------------------------------------------------

 NO OUTPUT CONTROL FOR STRESS PERIOD   49   TIME STEP   30



 STREAM LISTING     PERIOD     49   STEP       30

 LAYER ROW COL. STREAM  RCH.  FLOW INTO     FLOW TO   FLOW OUT OF   OVRLND.     DIRECT     STREAM       STREAM     STREAM     STREAM   STREAMBED  STREAMBED
                SEG.NO.  NO.  STRM. RCH.    AQUIFER    STRM. RCH.    RUNOFF     PRECIP       ET          HEAD       DEPTH      WIDTH   CONDCTNC.   GRADIENT

   1    1    1     1     1    1.4250E+01  1.8169E-01   1.4068E+01  0.000E+00  0.000E+00  0.000E+00  1.09404E+03  9.953E-01  1.011E+01  4.547E-02  1.332E+00
   1    2    2     1     2    1.4068E+01  2.7999E-01   1.3788E+01  0.000E+00  0.000E+00  0.000E+00  1.08905E+03  9.906E-01  1.002E+01  7.016E-02  1.330E+00
   1    3    3     1     3    1.3788E+01  2.3745E-01   1.3551E+01  0.000E+00  0.000E+00  0.000E+00  1.08340E+03  9.852E-01  9.930E+00  5.958E-02  1.328E+00
   1    3    4     1     4    1.3551E+01  2.1755E-01   1.3333E+01  0.000E+00  0.000E+00  0.000E+00  1.07839E+03  9.805E-01  9.848E+00  5.465E-02  1.327E+00
   1    4    5     2     1    1.1333E+01  2.9214E-01   1.1041E+01  0.000E+00  0.000E+00  0.000E+00  1.07268E+03  7.454E-01  1.200E+01  7.800E-02  1.248E+00
   1    5    6     2     2    1.1041E+01  2.2410E-01   1.0817E+01  0.000E+00  0.000E+00  0.000E+00  1.06724E+03  7.350E-01  1.200E+01  6.000E-02  1.245E+00
   1    6    6     2     3    1.0817E+01  2.2356E-01   1.0594E+01  0.000E+00  0.000E+00  0.000E+00  1.06252E+03  7.259E-01  1.200E+01  6.000E-02  1.242E+00
   1    7    6     2     4    1.0594E+01  2.2301E-01   1.0371E+01  0.000E+00  0.000E+00  0.000E+00  1.05779E+03  7.168E-01  1.200E+01  6.000E-02  1.239E+00
   1    8    6     2     5    1.0371E+01  2.2246E-01   1.0148E+01  0.000E+00  0.000E+00  0.000E+00  1.05307E+03  7.076E-01  1.200E+01  6.000E-02  1.236E+00
   1    3    5     3     1    2.0000E+00  2.8252E-01   1.7175E+00  0.000E+00  0.000E+00  0.000E+00  1.07555E+03  1.909E+00  9.636E+00  7.227E-02  1.955E+00
   1    3    6     3     2    1.7175E+00  2.4905E-01   1.4684E+00  0.000E+00  0.000E+00  0.000E+00  1.07264E+03  1.727E+00  8.909E+00  6.682E-02  1.864E+00
   1    3    7     3     3    1.4684E+00  1.9718E-01   1.2712E+00  0.000E+00  0.000E+00  0.000E+00  1.06987E+03  1.555E+00  8.218E+00  5.547E-02  1.777E+00
   1    4    8     3     4    1.2712E+00  2.2567E-01   1.0456E+00  0.000E+00  0.000E+00  0.000E+00  1.06682E+03  1.364E+00  7.455E+00  6.709E-02  1.682E+00
   1    5    8     3     5    1.0456E+00  1.5790E-01   8.8768E-01  0.000E+00  0.000E+00  0.000E+00  1.06362E+03  1.164E+00  6.655E+00  4.991E-02  1.582E+00
   1    6    8     3     6    8.8768E-01  5.5980E-02   8.3170E-01  0.000E+00  0.000E+00  0.000E+00  1.06158E+03  1.036E+00  6.145E+00  1.844E-02  1.518E+00
   1    5   10     4     1    1.0000E+01  9.0919E-02   9.9091E+00  0.000E+00  0.000E+00  0.000E+00  1.07836E+03  6.368E-01  1.000E+01  2.500E-02  1.212E+00
   1    5    9     4     2    9.9091E+00  1.8158E-01   9.7275E+00  0.000E+00  0.000E+00  0.000E+00  1.07154E+03  6.315E-01  1.000E+01  5.000E-02  1.211E+00
   1    6    8     4     3    9.7275E+00  1.2689E-01   9.6006E+00  0.000E+00  0.000E+00  0.000E+00  1.06381E+03  6.256E-01  1.000E+01  3.500E-02  1.209E+00
   1    6    8     5     1    1.0432E+01  2.2686E-01   1.0205E+01  0.000E+00  0.000E+00  0.000E+00  1.05868E+03  6.790E-01  1.542E+01  6.166E-02  1.226E+00
   1    7    7     5     2    1.0205E+01  2.7894E-01   9.9265E+00  0.000E+00  0.000E+00  0.000E+00  1.05417E+03  6.732E-01  1.519E+01  7.594E-02  1.224E+00
   1    8    7     5     3    9.9265E+00  1.9221E-01   9.7343E+00  0.000E+00  0.000E+00  0.000E+00  1.04992E+03  6.676E-01  1.497E+01  5.241E-02  1.223E+00
   1    8    6     5     4    9.7343E+00  1.3577E-01   9.5985E+00  0.000E+00  0.000E+00  0.000E+00  1.04691E+03  6.637E-01  1.482E+01  3.706E-02  1.221E+00
   1    9    6     6     1    1.9747E+01  2.4336E-01   1.9503E+01  0.000E+00  0.000E+00  0.000E+00  1.04378E+03  1.056E+00  1.200E+01  6.000E-02  1.352E+00
   1   10    7     6     2    1.9503E+01  2.4289E-01   1.9260E+01  0.000E+00  0.000E+00  0.000E+00  1.03923E+03  1.048E+00  1.200E+01  6.000E-02  1.349E+00
   1   11    7     6     3    1.9260E+01  2.4241E-01   1.9018E+01  0.000E+00  0.000E+00  0.000E+00  1.03468E+03  1.040E+00  1.200E+01  6.000E-02  1.347E+00
   1   12    7     6     4    1.9018E+01  2.4194E-01   1.8776E+01  0.000E+00  0.000E+00  0.000E+00  1.03012E+03  1.032E+00  1.200E+01  6.000E-02  1.344E+00
   1   13    7     6     5    1.8776E+01  9.3239E-03   1.8767E+01  0.000E+00  0.000E+00  0.000E+00  1.02694E+03  1.028E+00  1.200E+01  2.400E-02  1.295E-01
   1   14    9     7     1    1.5000E+02  1.3834E+00   1.4862E+02  0.000E+00  0.000E+00  0.000E+00  1.03987E+03  2.288E+00  5.529E+01  5.593E-01  8.245E-01
   1   13    8     7     2    1.4862E+02  1.9976E+00   1.4662E+02  0.000E+00  0.000E+00  0.000E+00  1.03478E+03  2.279E+00  5.525E+01  6.147E-01  1.083E+00
   1   13    7     7     3    1.4662E+02  1.7528E+00   1.4487E+02  0.000E+00  0.000E+00  0.000E+00  1.02969E+03  2.269E+00  5.521E+01  5.584E-01  1.046E+00
   1   13    6     8     1    1.6363E+02  1.1638E+00   1.6247E+02  0.000E+00  0.000E+00  0.000E+00  1.02478E+03  2.906E+00  4.214E+01  4.294E-01  9.033E-01
   1   13    5     8     2    1.6247E+02  4.0850E-01   1.6206E+02  0.000E+00  0.000E+00  0.000E+00  1.01853E+03  2.901E+00  4.207E+01  4.287E-01  3.177E-01
   1   13    4     8     3    1.6206E+02 -1.6266E+00   1.6369E+02  0.000E+00  0.000E+00  0.000E+00  1.01228E+03  2.905E+00  4.213E+01  4.293E+00 -1.263E-01
   1   13    3     8     4    1.6369E+02 -3.2622E+00   1.6695E+02  0.000E+00  0.000E+00  0.000E+00  1.00605E+03  2.921E+00  4.236E+01  4.317E+00 -2.519E-01
   1   13    2     8     5    1.6695E+02 -2.4888E+00   1.6944E+02  0.000E+00  0.000E+00  0.000E+00  9.99815E+02  2.940E+00  4.264E+01  4.345E+00 -1.909E-01
   1   13    1     8     6    1.6944E+02 -1.9669E+00   1.7141E+02  0.000E+00  0.000E+00  0.000E+00  9.94830E+02  2.955E+00  4.285E+01  2.620E+00 -2.503E-01
   1    8    6     9     1    0.0000E+00  0.0000E+00   0.0000E+00  0.000E+00  0.000E+00  0.000E+00  1.07875E+03  0.000E+00  4.000E+00  0.000E+00  1.000E+00
   1    8    5     9     2    0.0000E+00  0.0000E+00   0.0000E+00  0.000E+00  0.000E+00  0.000E+00  1.07825E+03  0.000E+00  4.000E+00  0.000E+00  1.000E+00





UNSATURATED ZONE PACKAGE VOLUMETRIC BUDGET FOR  TIME STEP    30 STRESS PERIOD   49
  ------------------------------------------------------------------------------



     CUMULATIVE VOLUMES      L**3       RATES FOR THIS TIME STEP      L**3/T
     ------------------                 ------------------------

           IN:                                      IN:
           ---                                      ---
        INFILTRATION =  1706838502.9482          INFILTRATION =           0.8475

          OUT:                                     OUT:
          ----                                     ----
              UZF ET =  1705500088.2775                UZF ET =           0.7500
        UZF RECHARGE =       73224.0000          UZF RECHARGE =       0.0000E+00

            IN - OUT =     1265190.6707              IN - OUT =       9.7500E-02

          STORAGE:                                 STORAGE:
          --------                                 --------
      STORAGE CHANGE =     1265190.8610        STORAGE CHANGE =       9.7500E-02

 PERCENT DISCREPANCY IS DIFFERENCE BETWEEN IN-OUT MINUS CHANGE IN STORAGE
 DIVIDED BY THE AVERAGE OF IN AND OUT TIMES 100

 PERCENT DISCREPANCY =           0.00     PERCENT DISCREPANCY =           0.00






1
  VOLUMETRIC BUDGET FOR AGRICULTURAL FIELDS AT  END OF TIME STEP   30, STRESS PERIOD  49
  ------------------------------------------------------------------------------

     CUMULATIVE VOLUMES      L**3       RATES FOR THIS TIME STEP      L**3/T
     ------------------                 ------------------------

           IN:                                      IN:
           ---                                      ---
               AG WELLS  =  1599775104.0000                 AG WELLS  =           0.0000
      DIVERSION SEGMENTS =           0.0000        DIVERSION SEGMENTS =           0.0000
       IRRIGATION PONDS  =           0.0000         IRRIGATION PONDS  =           0.0000
           GW IRRIGATION =           0.0000             GW IRRIGATION =           0.0000
           SW IRRIGATION =           0.0000             SW IRRIGATION =           0.0000
        SYSTEM LOSSES GW =           0.0000          SYSTEM LOSSES GW =           0.0000
        SYSTEM LOSSES SW =           0.0000          SYSTEM LOSSES SW =           0.0000

                TOTAL IN =  1599775104.0000                  TOTAL IN =           0.0000

          OUT:                                     OUT:
          ----                                     ----
               AG WELLS  =           0.0000                 AG WELLS  =           0.0000
      DIVERSION SEGMENTS =           0.0000        DIVERSION SEGMENTS =           0.0000
       IRRIGATION PONDS  =           0.0000         IRRIGATION PONDS  =           0.0000
           GW IRRIGATION =  1599775104.0000             GW IRRIGATION =           0.0000
           SW IRRIGATION =           0.0000             SW IRRIGATION =           0.0000
        SYSTEM LOSSES GW =           0.0000          SYSTEM LOSSES GW =           0.0000
        SYSTEM LOSSES SW =           0.0000          SYSTEM LOSSES SW =           0.0000

               TOTAL OUT =  1599775104.0000                 TOTAL OUT =           0.0000

                IN - OUT =           0.0000                  IN - OUT =           0.0000

     PERCENT DISCREPANCY =           0.00         PERCENT DISCREPANCY =           0.00



1
  VOLUMETRIC BUDGET FOR ENTIRE MODEL AT END OF TIME STEP   30, STRESS PERIOD  49
  ------------------------------------------------------------------------------

     CUMULATIVE VOLUMES      L**3       RATES FOR THIS TIME STEP      L**3/T
     ------------------                 ------------------------

           IN:                                      IN:
           ---                                      ---
             STORAGE     =  2183707136.0000               STORAGE     =           7.4916
       CONSTANT HEAD     =           0.0000         CONSTANT HEAD     =           0.0000
     HEAD DEP BOUNDS     =    36218208.0000       HEAD DEP BOUNDS     =           0.2890
      STREAM LEAKAGE     =  1569839616.0000        STREAM LEAKAGE     =          12.1894
        UZF RECHARGE     =       73223.9531          UZF RECHARGE     =           0.0000
               GW ET     =           0.0000                 GW ET     =           0.0000
     SURFACE LEAKAGE     =           0.0000       SURFACE LEAKAGE     =           0.0000
           AG WELLS      =           0.0000             AG WELLS      =           0.0000

                TOTAL IN =  3789838080.0000                  TOTAL IN =          19.9700

          OUT:                                     OUT:
          ----                                     ----
             STORAGE     =   874676928.0000               STORAGE     =          10.3374
       CONSTANT HEAD     =           0.0000         CONSTANT HEAD     =           0.0000
     HEAD DEP BOUNDS     =    36880072.0000       HEAD DEP BOUNDS     =           0.2881
      STREAM LEAKAGE     =  1270103296.0000        STREAM LEAKAGE     =           9.3445
        UZF RECHARGE     =           0.0000          UZF RECHARGE     =           0.0000
               GW ET     =     8413934.0000                 GW ET     =           0.0000
     SURFACE LEAKAGE     =           0.0000       SURFACE LEAKAGE     =           0.0000
           AG WELLS      =  1599775104.0000             AG WELLS      =           0.0000

               TOTAL OUT =  3789849088.0000                 TOTAL OUT =          19.9700

                IN - OUT =      -11008.0000                  IN - OUT =       1.5259E-05

     PERCENT DISCREPANCY =          -0.00         PERCENT DISCREPANCY =           0.00






         TIME SUMMARY AT END OF TIME STEP   30 IN STRESS PERIOD   49
                    SECONDS     MINUTES      HOURS       DAYS        YEARS
                    -----------------------------------------------------------
   TIME STEP LENGTH  87667.      1461.1      24.352      1.0147     2.77799E-03
 STRESS PERIOD TIME 2.63000E+06  43833.      730.56      30.440     8.33397E-02
         TOTAL TIME 1.26325E+08 2.10542E+06  35090.      1462.1      4.0030    
1


 Run end date and time (yyyy/mm/dd hh:mm:ss): 2022/03/11  9:19:35
 Elapsed run time: 3.292 Seconds

