                                  MODFLOW-NWT-SWR1 
      U.S. GEOLOGICAL SURVEY MODULAR FINITE-DIFFERENCE GROUNDWATER-FLOW MODEL
                            VERSION 1.2.0 03/01/2020
                    BASED ON MODFLOW-2005 VERSION 1.12.00 02/03/2017

 LIST FILE: ./output/Agwater1_high.lst
                         UNIT    9

 OPENING ./input/Agwater1.ba6
 FILE TYPE:BAS6   UNIT   75   STATUS:OLD    
 FORMAT:FORMATTED              ACCESS:SEQUENTIAL          

 OPENING ./input/Agwater1.upw
 FILE TYPE:UPW   UNIT    7   STATUS:OLD    
 FORMAT:FORMATTED              ACCESS:SEQUENTIAL          

 OPENING ./input/Agwater1.dis
 FILE TYPE:DIS   UNIT    8   STATUS:OLD    
 FORMAT:FORMATTED              ACCESS:SEQUENTIAL          

 OPENING ./input/Agwater1.nwt
 FILE TYPE:NWT   UNIT   13   STATUS:OLD    
 FORMAT:FORMATTED              ACCESS:SEQUENTIAL          

 OPENING ./input/Agwater1.oc
 FILE TYPE:OC   UNIT   14   STATUS:OLD    
 FORMAT:FORMATTED              ACCESS:SEQUENTIAL          

 OPENING ./input/Agwater1.sfr
 FILE TYPE:SFR   UNIT   15   STATUS:OLD    
 FORMAT:FORMATTED              ACCESS:SEQUENTIAL          

 OPENING ./input/Agwater1.ghb
 FILE TYPE:GHB   UNIT   17   STATUS:OLD    
 FORMAT:FORMATTED              ACCESS:SEQUENTIAL          

 OPENING ./input/Agwater1.uzf
 FILE TYPE:UZF   UNIT   19   STATUS:OLD    
 FORMAT:FORMATTED              ACCESS:SEQUENTIAL          

 OPENING ./input/Agwater1.gag
 FILE TYPE:GAGE   UNIT   32   STATUS:OLD    
 FORMAT:FORMATTED              ACCESS:SEQUENTIAL          

 OPENING ./input/seg1_high.tab
 FILE TYPE:DATA   UNIT   55   STATUS:UNKNOWN
 FORMAT:FORMATTED              ACCESS:SEQUENTIAL          

 OPENING ./input/seg9.tab
 FILE TYPE:DATA   UNIT   56   STATUS:UNKNOWN
 FORMAT:FORMATTED              ACCESS:SEQUENTIAL          

 OPENING ./input/Agwater1.ag
 FILE TYPE:AG   UNIT   57   STATUS:OLD    
 FORMAT:FORMATTED              ACCESS:SEQUENTIAL          

 OPENING ./output/Agwater1_high.hed
 FILE TYPE:DATA   UNIT   62   STATUS:UNKNOWN
 FORMAT:FORMATTED              ACCESS:SEQUENTIAL          

 OPENING ./output/Agwater1gw_high.ts5
 FILE TYPE:DATA   UNIT  105   STATUS:UNKNOWN
 FORMAT:FORMATTED              ACCESS:SEQUENTIAL          

 OPENING ./output/Agwater1SW_high.ts9
 FILE TYPE:DATA   UNIT  107   STATUS:UNKNOWN
 FORMAT:FORMATTED              ACCESS:SEQUENTIAL          

 OPENING ./output/Agwater1SW_ET_high.ts9
 FILE TYPE:DATA   UNIT  108   STATUS:UNKNOWN
 FORMAT:FORMATTED              ACCESS:SEQUENTIAL          

 OPENING ./output/Agwater1_high.uzfot
 FILE TYPE:DATA(BINARY)   UNIT   61   STATUS:UNKNOWN
 FORMAT:BINARY                 ACCESS:SEQUENTIAL          

 OPENING ./output/Agwater1cbc_high.unf
 FILE TYPE:DATA(BINARY)   UNIT  102   STATUS:UNKNOWN
 FORMAT:BINARY                 ACCESS:SEQUENTIAL          

 OPENING ./output/Agwater1_high.uzf1
 FILE TYPE:DATA   UNIT   65   STATUS:UNKNOWN
 FORMAT:FORMATTED              ACCESS:SEQUENTIAL          

 OPENING ./output/Agwater1_high.uzf2
 FILE TYPE:DATA   UNIT   66   STATUS:UNKNOWN
 FORMAT:FORMATTED              ACCESS:SEQUENTIAL          

 OPENING ./output/Agwater1_high.uzf3
 FILE TYPE:DATA   UNIT   67   STATUS:UNKNOWN
 FORMAT:FORMATTED              ACCESS:SEQUENTIAL          

 OPENING ./output/Agwater1_high.uzf4
 FILE TYPE:DATA   UNIT   68   STATUS:UNKNOWN
 FORMAT:FORMATTED              ACCESS:SEQUENTIAL          

 OPENING ./output/Agwater1_high.flw
 FILE TYPE:DATA   UNIT   81   STATUS:UNKNOWN
 FORMAT:FORMATTED              ACCESS:SEQUENTIAL          

 OPENING ./output/Agwater1_high.sg1
 FILE TYPE:DATA   UNIT   83   STATUS:UNKNOWN
 FORMAT:FORMATTED              ACCESS:SEQUENTIAL          

 OPENING ./output/Agwater1_high.sg2
 FILE TYPE:DATA   UNIT   84   STATUS:UNKNOWN
 FORMAT:FORMATTED              ACCESS:SEQUENTIAL          

 OPENING ./output/Agwater1_high.sg3
 FILE TYPE:DATA   UNIT   85   STATUS:UNKNOWN
 FORMAT:FORMATTED              ACCESS:SEQUENTIAL          

 OPENING ./output/Agwater1_high.sg4
 FILE TYPE:DATA   UNIT   86   STATUS:UNKNOWN
 FORMAT:FORMATTED              ACCESS:SEQUENTIAL          

 OPENING ./output/Agwater1_high.sg5
 FILE TYPE:DATA   UNIT   87   STATUS:UNKNOWN
 FORMAT:FORMATTED              ACCESS:SEQUENTIAL          

 OPENING ./output/Agwater1_high.sg6
 FILE TYPE:DATA   UNIT   88   STATUS:UNKNOWN
 FORMAT:FORMATTED              ACCESS:SEQUENTIAL          

 OPENING ./output/Agwater1_high.sg7
 FILE TYPE:DATA   UNIT   89   STATUS:UNKNOWN
 FORMAT:FORMATTED              ACCESS:SEQUENTIAL          

 OPENING ./output/Agwater1_high.sg8
 FILE TYPE:DATA   UNIT   90   STATUS:UNKNOWN
 FORMAT:FORMATTED              ACCESS:SEQUENTIAL          

 OPENING ./output/Agwater1_high.sg9
 FILE TYPE:DATA   UNIT   91   STATUS:UNKNOWN
 FORMAT:FORMATTED              ACCESS:SEQUENTIAL          

 BAS -- BASIC PACKAGE, VERSION 1.1.4, 4/01/2018 INPUT READ FROM UNIT   75
 
 MODFLOW was compiled using mixed precision
 Precision of REAL variables:           6
 Precision of DOUBLE PRECISION variables:          15

 DISCRETIZATION INPUT DATA READ FROM UNIT    8
 #Test problem 2-- Discretization input
 #Example problem using the UZF1 Package
    1 LAYERS        15 ROWS        10 COLUMNS
   49 STRESS PERIOD(S) IN SIMULATION
 MODEL TIME UNIT IS SECONDS
 MODEL LENGTH UNIT IS FEET
  Confining bed flag for each layer:
   0

                     DELR =   5000.00    

                     DELC =   5000.00    



           TOP ELEVATION OF LAYER 1
 READING ON UNIT    8 WITH FORMAT: (10F7.0)            

            1           2           3           4           5           6           7           8           9          10
 ........................................................................................................................
   1    1105.       1105.       0.000       0.000       0.000       0.000       0.000       0.000       0.000       0.000    
   2    1105.       1095.       1105.       0.000       0.000       1100.       1100.       1110.       0.000       0.000    
   3    0.000       1100.       1085.       1080.       1078.       1076.       1073.       1090.       0.000       0.000    
   4    1110.       1100.       1090.       1085.       1076.       1080.       1080.       1070.       1100.       0.000    
   5    1110.       1100.       1085.       1080.       1078.       1074.       1077.       1066.       1075.       1080.    
   6    1105.       1095.       1080.       1077.       1073.       1069.       1070.       1063.       1085.       1095.    
   7    1105.       1090.       1075.       1072.       1070.       1065.       1065.       1069.       1090.       0.000    
   8    0.000       1080.       1070.       1068.       1063.       1060.       1063.       1067.       1090.       0.000    
   9    0.000       1075.       1065.       1062.       1058.       1052.       1055.       1065.       1090.       0.000    
  10    0.000       1070.       1060.       1055.       1046.       1046.       1044.       1060.       1088.       1100.    
  11    0.000       1055.       1050.       1045.       1041.       1042.       1040.       1050.       1075.       0.000    
  12    1027.       1028.       1028.       1032.       1032.       1033.       1032.       1040.       1060.       0.000    
  13    997.0       1004.       1008.       1014.       1020.       1027.       1032.       1038.       1050.       0.000    
  14    0.000       1030.       1040.       1045.       1050.       1050.       1050.       1050.       1044.       0.000    
  15    0.000       0.000       1080.       1080.       1080.       1080.       0.000       0.000       0.000       0.000    



             MODEL LAYER BOTTOM EL. FOR LAYER   1
 READING ON UNIT    8 WITH FORMAT: (10F7.0)            

            1           2           3           4           5           6           7           8           9          10
 ........................................................................................................................
   1    1000.       1000.       0.000       0.000       0.000       0.000       0.000       0.000       0.000       0.000    
   2    1000.       900.0       900.0       0.000       0.000       950.0       950.0       950.0       0.000       0.000    
   3    0.000       850.0       670.0       680.0       680.0       770.0       770.0       890.0       0.000       0.000    
   4    925.0       850.0       650.0       650.0       650.0       680.0       740.0       850.0       950.0       0.000    
   5    925.0       800.0       650.0       600.0       600.0       600.0       650.0       720.0       850.0       950.0    
   6    925.0       800.0       650.0       600.0       550.0       600.0       650.0       720.0       850.0       970.0    
   7    925.0       800.0       650.0       600.0       550.0       600.0       650.0       720.0       950.0       0.000    
   8    0.000       850.0       700.0       650.0       570.0       600.0       700.0       850.0       950.0       0.000    
   9    0.000       850.0       700.0       650.0       540.0       580.0       700.0       850.0       950.0       0.000    
  10    0.000       850.0       700.0       630.0       530.0       580.0       650.0       800.0       900.0       950.0    
  11    0.000       850.0       700.0       620.0       580.0       620.0       700.0       800.0       900.0       0.000    
  12    900.0       830.0       710.0       640.0       600.0       650.0       700.0       800.0       900.0       0.000    
  13    900.0       810.0       750.0       700.0       650.0       700.0       750.0       800.0       900.0       0.000    
  14    0.000       950.0       850.0       850.0       850.0       850.0       850.0       850.0       850.0       0.000    
  15    0.000       0.000       950.0       950.0       950.0       950.0       0.000       0.000       0.000       0.000    


 STRESS PERIOD     LENGTH       TIME STEPS     MULTIPLIER FOR DELT    SS FLAG
 ----------------------------------------------------------------------------
        1         86400.00          1                    1.000         SS
        2         2630000.         30                    1.000         TR
        3         2630000.         30                    1.000         TR
        4         2630000.         30                    1.000         TR
        5         2630000.         30                    1.000         TR
        6         2630000.         30                    1.000         TR
        7         2630000.         30                    1.000         TR
        8         2630000.         30                    1.000         TR
        9         2630000.         30                    1.000         TR
       10         2630000.         30                    1.000         TR
       11         2630000.         30                    1.000         TR
       12         2630000.         30                    1.000         TR
       13         2630000.         30                    1.000         TR
       14         2630000.         30                    1.000         TR
       15         2630000.         30                    1.000         TR
       16         2630000.         30                    1.000         TR
       17         2630000.         30                    1.000         TR
       18         2630000.         30                    1.000         TR
       19         2630000.         30                    1.000         TR
       20         2630000.         30                    1.000         TR
       21         2630000.         30                    1.000         TR
       22         2630000.         30                    1.000         TR
       23         2630000.         30                    1.000         TR
       24         2630000.         30                    1.000         TR
       25         2630000.         30                    1.000         TR
       26         2630000.         30                    1.000         TR
       27         2630000.         30                    1.000         TR
       28         2630000.         30                    1.000         TR
       29         2630000.         30                    1.000         TR
       30         2630000.         30                    1.000         TR
       31         2630000.         30                    1.000         TR
       32         2630000.         30                    1.000         TR
       33         2630000.         30                    1.000         TR
       34         2630000.         30                    1.000         TR
       35         2630000.         30                    1.000         TR
       36         2630000.         30                    1.000         TR
       37         2630000.         30                    1.000         TR
       38         2630000.         30                    1.000         TR
       39         2630000.         30                    1.000         TR
       40         2630000.         30                    1.000         TR
       41         2630000.         30                    1.000         TR
       42         2630000.         30                    1.000         TR
       43         2630000.         30                    1.000         TR
       44         2630000.         30                    1.000         TR
       45         2630000.         30                    1.000         TR
       46         2630000.         30                    1.000         TR
       47         2630000.         30                    1.000         TR
       48         2630000.         30                    1.000         TR
       49         2630000.         30                    1.000         TR

 COMBINED STEADY-STATE AND TRANSIENT SIMULATION



 
 #Test Simulation 2-- Example problem using the UZF1 Package                     
 #Modified from example Problem 1 of SFR1 documentation report                   
 THE FREE FORMAT OPTION HAS BEEN SELECTED



                     BOUNDARY ARRAY FOR LAYER   1
 READING ON UNIT   75 WITH FORMAT: (20I4)              

                1           2           3           4           5           6           7           8           9          10
 ............................................................................................................................
   1            1           1           0           0           0           0           0           0           0           0
   2            1           1           1           0           0           1           1           1           0           0
   3            0           1           1           1           1           1           1           1           0           0
   4            1           1           1           1           1           1           1           1           1           0
   5            1           1           1           1           1           1           1           1           1           1
   6            1           1           1           1           1           1           1           1           1           1
   7            1           1           1           1           1           1           1           1           1           0
   8            0           1           1           1           1           1           1           1           1           0
   9            0           1           1           1           1           1           1           1           1           0
  10            0           1           1           1           1           1           1           1           1           1
  11            0           1           1           1           1           1           1           1           1           0
  12            1           1           1           1           1           1           1           1           1           0
  13            1           1           1           1           1           1           1           1           1           0
  14            0           1           1           1           1           1           1           1           1           0
  15            0           0           1           1           1           1           0           0           0           0

 AQUIFER HEAD WILL BE SET TO   6999.0     AT ALL NO-FLOW NODES (IBOUND=0).



                       INITIAL HEAD FOR LAYER   1
 READING ON UNIT   75 WITH FORMAT: (10F8.0)            

            1           2           3           4           5           6           7           8           9          10
 ........................................................................................................................
   1    1093.       1089.       6999.       6999.       6999.       6999.       6999.       6999.       6999.       6999.    
   2    1090.       1087.       1081.       6999.       6999.       1072.       1071.       1071.       6999.       6999.    
   3    6999.       1079.       1078.       1074.       1072.       1071.       1069.       1068.       6999.       6999.    
   4    1069.       1071.       1070.       1067.       1065.       1064.       1064.       1066.       1066.       6999.    
   5    1065.       1064.       1063.       1062.       1061.       1061.       1060.       1062.       1066.       1068.    
   6    1060.       1058.       1057.       1056.       1056.       1057.       1057.       1059.       1062.       1066.    
   7    1056.       1053.       1052.       1051.       1051.       1052.       1053.       1055.       1056.       6999.    
   8    6999.       1046.       1046.       1046.       1046.       1046.       1048.       1050.       1050.       6999.    
   9    6999.       1039.       1039.       1039.       1040.       1041.       1042.       1043.       1044.       6999.    
  10    6999.       1031.       1032.       1033.       1034.       1035.       1037.       1038.       1039.       1042.    
  11    6999.       1021.       1023.       1027.       1029.       1030.       1032.       1034.       1036.       6999.    
  12    1001.       1009.       1015.       1020.       1023.       1026.       1029.       1030.       1034.       6999.    
  13    994.5      1000.0       1007.       1013.       1019.       1024.       1029.       1034.       1036.       6999.    
  14    6999.       1004.       1009.       1014.       1019.       1024.       1029.       1035.       1039.       6999.    
  15    6999.       6999.       1012.       1015.       1019.       1022.       6999.       6999.       6999.       6999.    

 OUTPUT CONTROL IS SPECIFIED ONLY AT TIME STEPS FOR WHICH OUTPUT IS DESIRED
 HEADS WILL BE SAVED WITH FORMAT: (10F10.3)           
 SAVED HEADS WILL BE LABELED
 COMPACT CELL-BY-CELL BUDGET FILES WILL BE WRITTEN
 HEAD PRINT FORMAT CODE IS   4    DRAWDOWN PRINT FORMAT CODE IS   0
 HEADS WILL BE SAVED ON UNIT   62    DRAWDOWNS WILL BE SAVED ON UNIT    0
 # NWT Input File
 # Test Problem 3 for MODFLOW-NWT
 #HEADTOL  FLUXTOL MAXITEROUT THICKFACT LINMETH IPRNWT IBOTAV OPTIONS DBDREDUCE DBDINCREASE DBDGAMMA MOMFACT BACKFLAG MAXBACKITER BACKTOL BACKREDUCE

 NWT1 -- Newton Solver, VERSION 1.1.4, 4/01/2018
         INPUT READ FROM UNIT 13

 SPECIFIED OPTION:
 SOLVER INPUT VALUES ARE SPECIFIED BY USER
 ***XMD linear solver will be used***
 
   CONVERGENCE CRITERION OF   0.100000E-03 FOR HEAD SOLUTION
   AND A TOLERANCE OF   0.100000E+01 FOR FLOW SOLUTION AND 
   A MAXIMUM OF   500 OUTER ITERATIONS. 


   D-B-D REDUCTION FACTOR OF    0.970000E+00 AND 
   A D-B-D INCREASE FACTOR OF    0.100000E-04 AND 
   A D-B-D RELAXATION OF    0.000000E+00 AND 
   A MOMENTUM FACTOR OF    0.100000E+00 .


 ***BACKTRACKING IS INACTIVE***
 XMD -- LINEAR SOLUTION BY XMD PACKAGE VERSION 1.30
     BY MOTOMU IBARAKI, OHIO STATE UNIVERSITY, COLOMBUS, OH
                 INPUT READ FROM UNIT 13
 ACCELERATION METHOD                    (IACL) =         1
 NODE ORDERING FLAG                   (NORDER) =         0
 LEVEL OF FILL                         (LEVEL) =         7
 MAXIMUM NUMBER OF ORTHOGONALIZATIONS  (NORTH) =         7
 INDEX FOR USING REDUCED SYSTEM      (IREDSYS) =         1
 RESID. REDUCTION CONVERGE CRITERION  (RRCTOL) =  0.000000E+00
 INDEX FOR USING DROP TOLERANCE     (IDROPTOL) =         1
 DROP TOLERANCE VALUE                  (EPSRN) =  0.500000E-02
 CONVERGENCE CRITERIA OF           (HCLOSEXMD) =  0.100000E-03
 MAX. NUMBER OF LINEAR ITERATIONS  (MXITERXMD) =        50


 UPW1 -- UPSTREAM WEIGHTING FLOW PACKAGE, VERSION 1.1.4, 4/01/2018
         INPUT READ FROM UNIT  7

 #Layer-Property Flow Package input for test simulation 2
 CELL-BY-CELL FLOWS WILL BE SAVED ON UNIT  102
 No named parameters

   LAYER FLAGS:
 LAYER       LAYTYP          LAYAVG    CHANI           LAYVKA           LAYWET
 ---------------------------------------------------------------------------
    1             1             0     1.000E+00             0             0

   INTERPRETATION OF LAYER FLAGS:
                        INTERBLOCK     HORIZONTAL    DATA IN
         LAYER TYPE   TRANSMISSIVITY   ANISOTROPY   ARRAY VKA   WETTABILITY
 LAYER   (LAYTYP)        (LAYAVG)      (CHANI)     (LAYVKA)       (LAYWET)
 ---------------------------------------------------------------------------
    1   CONVERTIBLE      HARMONIC     1.000E+00    VERTICAL K  NON-WETTABLE



              HYD. COND. ALONG ROWS FOR LAYER   1
 READING ON UNIT    7 WITH FORMAT: (10F5.0)            

            1           2           3           4           5           6           7           8           9          10
 ........................................................................................................................
   1   2.0000E-03  2.0000E-03   0.000       0.000       0.000       0.000       0.000       0.000       0.000       0.000    
   2   4.0000E-04  2.0000E-03  2.0000E-03   0.000       0.000      4.0000E-04  4.0000E-04  4.0000E-04   0.000       0.000    
   3    0.000      4.0000E-04  2.0000E-03  2.0000E-03  4.0000E-04  4.0000E-04  4.0000E-04  4.0000E-04   0.000       0.000    
   4   4.0000E-04  4.0000E-04  4.0000E-04  2.0000E-03  2.0000E-03  2.0000E-03  4.0000E-04  4.0000E-04  4.0000E-04   0.000    
   5   4.0000E-04  4.0000E-04  4.0000E-04  2.0000E-03  2.0000E-03  2.0000E-03  2.0000E-03  2.0000E-03  2.0000E-03  2.0000E-03
   6   4.0000E-04  4.0000E-04  4.0000E-04  2.0000E-03  2.0000E-03  2.0000E-03  2.0000E-03  2.0000E-03  4.0000E-04  4.0000E-04
   7   4.0000E-04  4.0000E-04  4.0000E-04  2.0000E-03  2.0000E-03  2.0000E-03  2.0000E-03  2.0000E-03  4.0000E-04   0.000    
   8    0.000      4.0000E-04  4.0000E-04  2.0000E-03  2.0000E-03  2.0000E-03  2.0000E-03  4.0000E-04  4.0000E-04   0.000    
   9    0.000      4.0000E-04  4.0000E-04  2.0000E-03  2.0000E-03  2.0000E-03  2.0000E-03  4.0000E-04  4.0000E-04   0.000    
  10    0.000      4.0000E-04  4.0000E-04  2.0000E-03  2.0000E-03  2.0000E-03  2.0000E-03  4.0000E-04  4.0000E-04  4.0000E-04
  11    0.000      4.0000E-04  4.0000E-04  2.0000E-03  2.0000E-03  2.0000E-03  2.0000E-03  4.0000E-04  4.0000E-04   0.000    
  12   4.0000E-04  4.0000E-04  2.0000E-03  2.0000E-03  2.0000E-03  2.0000E-03  2.0000E-03  4.0000E-04  4.0000E-04   0.000    
  13   2.0000E-03  2.0000E-03  2.0000E-03  2.0000E-03  2.0000E-03  2.0000E-03  2.0000E-03  2.0000E-03  2.0000E-03   0.000    
  14    0.000      4.0000E-04  4.0000E-04  4.0000E-04  4.0000E-04  4.0000E-04  4.0000E-04  4.0000E-04  2.0000E-03   0.000    
  15    0.000       0.000      4.0000E-04  4.0000E-04  4.0000E-04  4.0000E-04   0.000       0.000       0.000       0.000    

      VERTICAL HYD. COND. =  1.000000E-06 FOR LAYER   1

         SPECIFIC STORAGE =  1.000000E-06 FOR LAYER   1



                     SPECIFIC YIELD FOR LAYER   1
 READING ON UNIT    7 WITH FORMAT: (10F5.0)            

            1           2           3           4           5           6           7           8           9          10
 ........................................................................................................................
   1   0.2000      0.2000       0.000       0.000       0.000       0.000       0.000       0.000       0.000       0.000    
   2   0.1000      0.2000      0.2000       0.000       0.000      0.1000      0.1000      0.1000       0.000       0.000    
   3    0.000      0.1000      0.2000      0.2000      0.1000      0.1000      0.1000      0.1000       0.000       0.000    
   4   0.1000      0.1000      0.1000      0.2000      0.2000      0.2000      0.1000      0.1000      0.1000       0.000    
   5   0.1000      0.1000      0.1000      0.2000      0.2000      0.2000      0.2000      0.2000      0.2000      0.2000    
   6   0.1000      0.1000      0.1000      0.2000      0.2000      0.2000      0.2000      0.2000      0.1000      0.1000    
   7   0.1000      0.1000      0.1000      0.2000      0.2000      0.2000      0.2000      0.2000      0.1000       0.000    
   8    0.000      0.1000      0.1000      0.2000      0.2000      0.2000      0.2000      0.1000      0.1000       0.000    
   9    0.000      0.1000      0.1000      0.2000      0.2000      0.2000      0.2000      0.1000      0.1000       0.000    
  10    0.000      0.1000      0.1000      0.2000      0.2000      0.2000      0.2000      0.1000      0.1000      0.1000    
  11    0.000      0.1000      0.1000      0.2000      0.2000      0.2000      0.2000      0.1000      0.1000       0.000    
  12   0.1000      0.1000      0.2000      0.2000      0.2000      0.2000      0.2000      0.1000      0.1000       0.000    
  13   0.2000      0.2000      0.2000      0.2000      0.2000      0.2000      0.2000      0.2000      0.2000       0.000    
  14    0.000      0.1000      0.1000      0.1000      0.1000      0.1000      0.1000      0.1000      0.2000       0.000    
  15    0.000       0.000      0.1000      0.1000      0.1000      0.1000       0.000       0.000       0.000       0.000    

 GHB -- GENERAL-HEAD BOUNDARY PACKAGE, VERSION 7, 5/2/2005
         INPUT READ FROM UNIT   17
 No named parameters
 MAXIMUM OF      2 ACTIVE GHB CELLS AT ONE TIME
 CELL-BY-CELL FLOWS WILL BE PRINTED WHEN ICBCFL NOT 0


     0 GHB parameters

 SFR7 -- STREAMFLOW ROUTING PACKAGE, VERSION 1.0.5, 2012-04-05
         INPUT READ FROM UNIT  15
 #SFR2 Package input for Testing supplimental pumping and irrigation
 No named parameters

 PROCESSING SFR2 OPTIONS
 
          2 Specified inflow files will be read with a maximum of       1446 row entries per file
 
Stream loss will be calculated as a factor of the streambed hydraulic conductivity. Multiplication factor is equal to     0.1000000015E+00

 END PROCESSING SFR2 OPTIONS
 


 NUMBER OF STREAM REACHES IS   38

 NUMBER OF STREAM SEGMENTS IS    9

 NUMBER OF STREAM PARAMETERS IS    0

 NUMBER OF STREAM SEGMENTS DEFINED USING PARAMETERS IS              0

 MAXIMUM ERROR FOR STREAM LEAKAGE RATES IS  1.00E-06

 CONSTANT FOR MANNINGS EQUATION IS  1.4860E+00



 STREAM OUTPUT WILL BE WRITTEN TO FILE ON UNIT   81


   STREAM NETWORK DESCRIPTION: 

   LAYER    ROW    COL   SEGMENT   REACH     LENGTH
                          NUMBER   NUMBER    IN CELL        
   --------------------------------------------------
      1      1      1       1        1    4.5000E+03
      1      2      2       1        2    7.0000E+03
      1      3      3       1        3    6.0000E+03
      1      3      4       1        4    5.5500E+03
      1      4      5       2        1    6.5000E+03
      1      5      6       2        2    5.0000E+03
      1      6      6       2        3    5.0000E+03
      1      7      6       2        4    5.0000E+03
      1      8      6       2        5    5.0000E+03
      1      3      5       3        1    5.0000E+03
      1      3      6       3        2    5.0000E+03
      1      3      7       3        3    4.5000E+03
      1      4      8       3        4    6.0000E+03
      1      5      8       3        5    5.0000E+03
      1      6      8       3        6    2.0000E+03
      1      5     10       4        1    2.5000E+03
      1      5      9       4        2    5.0000E+03
      1      6      8       4        3    3.5000E+03
      1      6      8       5        1    4.0000E+03
      1      7      7       5        2    5.0000E+03
      1      8      7       5        3    3.5000E+03
      1      8      6       5        4    2.5000E+03
      1      9      6       6        1    5.0000E+03
      1     10      7       6        2    5.0000E+03
      1     11      7       6        3    5.0000E+03
      1     12      7       6        4    5.0000E+03
      1     13      7       6        5    2.0000E+03
      1     14      9       7        1    5.0000E+03
      1     13      8       7        2    5.5000E+03
      1     13      7       7        3    5.0000E+03
      1     13      6       8        1    5.0000E+03
      1     13      5       8        2    5.0000E+03
      1     13      4       8        3    5.0000E+03
      1     13      3       8        4    5.0000E+03
      1     13      2       8        5    5.0000E+03
      1     13      1       8        6    3.0000E+03
      1      8      6       9        1    3.0000E+03
      1      8      5       9        2    3.0000E+03




 UZF1 -- UNSATURATED FLOW PACKAGE, VERSION 1.5, 09/10/2019
         INPUT READ FROM UNIT 19
 #UZF Package input for test simulation 2
 No named parameters

 PROCESSING UZF OPTIONS
 
 
 INITIAL WATER CONTENT (THTI) WILL BE 
READ FOR THE FIRST SS OR TR STRESS PERIOD
 
 
 RESIDUAL WATER CONTENT (THTR) WILL BE 
READ AND USED FOR THE FIRST TRANSIENT STRESS 
PERIOD
 
 
AIR ENTRY PRESSURE AND ROOT PRESSURE WILL BE 
SPECIFIED BY USER AND UZ ET WILL BE SIMULATED 
AS PRESSURE-HEAD DEPENDENT
 
 
INFILTRATION WILL BE REJECTED USING 
LAND SURFACE K
 
 
HYDRAULIC CONDUCTIVITY OF LAND SURFACE 
WILL BE READ
 

 END PROCESSING UZF OPTIONS



            AREAL EXTENT OF UZ FLOW
 READING ON UNIT   19 WITH FORMAT: (20I4)              

                1           2           3           4           5           6           7           8           9          10
 ............................................................................................................................
   1            1           1           0           0           0           0           0           0           0           0
   2            1           1           1           0           0           1           1           1           0           0
   3            0           1           1           1           1           1           1           1           0           0
   4            1           1           1           1           1           1           1           1           1           0
   5            1           1           1           1           1           1           1           1           1           1
   6            1           1           1           1           1           1           1           1           1           1
   7            1           1           1           1           1           1           1           1           1           0
   8            0           1           1           1           1           1           1           1           1           0
   9            0           1           1           1           1           1           1           1           1           0
  10            0           1           1           1           1           1           1           1           1           1
  11            0           1           1           1           1           1           1           1           1           0
  12            1           1           1           1           1           1           1           1           1           0
  13            1           1           1           1           1           1           1           1           1           0
  14            0           1           1           1           1           1           1           1           1           0
  15            0           0           1           1           1           1           0           0           0           0
 OPTION 1 -- RECHARGE IN UZF TO TOP LAYER ONLY 



            ROUTING OVERLAND RUNOFF
 READING ON UNIT   19 WITH FORMAT: (20I4)              

                1           2           3           4           5           6           7           8           9          10
 ............................................................................................................................
   1            1           1           0           0           0           0           0           0           0           0
   2            1           1           1           0           0           3           3           3           0           0
   3            0           1           1           1           3           3           3           3           0           0
   4            8           8           2           2           2           2           2           3           3           0
   5            8           8           8           8           2           2           2           3           4           4
   6            8           8           8           8           8           2           2           4           4           4
   7            8           8           8           8           8           2           5           5           5           0
   8            0           8           8           8           8           2           5           5           5           0
   9            0           8           8           8           8           6           6           6           6           0
  10            0           8           8           8           8           6           6           6           6           6
  11            0           8           8           8           8           8           6           6           7           0
  12            8           8           8           8           8           8           6           7           7           0
  13            8           8           8           8           8           8           7           7           7           0
  14            0           8           8           8           8           8           7           7           7           0
  15            0           0           8           8           8           8           0           0           0           0



               SATURATED VERTICAL K
 READING ON UNIT   19 WITH FORMAT: (10F4.0)            

            1           2           3           4           5           6           7           8           9          10
 ........................................................................................................................
   1   4.6000E-05  4.6000E-05   0.000       0.000       0.000       0.000       0.000       0.000       0.000       0.000    
   2   4.6000E-05  4.6000E-05  4.6000E-05   0.000       0.000      4.6000E-05  4.6000E-05  4.6000E-05   0.000       0.000    
   3    0.000      4.6000E-05  4.6000E-05  4.6000E-05  4.6000E-05  4.6000E-05  4.6000E-05  4.6000E-05   0.000       0.000    
   4   4.6000E-05  4.6000E-05  4.6000E-05  4.6000E-05  4.6000E-05  4.6000E-05  4.6000E-05  4.6000E-05  4.6000E-05   0.000    
   5   4.6000E-05  4.6000E-05  4.6000E-05  4.6000E-05  4.6000E-05  4.6000E-05  4.6000E-05  4.6000E-05  4.6000E-05  4.6000E-05
   6   4.6000E-05  4.6000E-05  4.6000E-05  4.6000E-05  4.6000E-05  4.6000E-05  4.6000E-05  4.6000E-05  4.6000E-05  4.6000E-05
   7   4.6000E-05  4.6000E-05  4.6000E-05  4.6000E-05  4.6000E-05  4.6000E-05  4.6000E-05  4.6000E-05  4.6000E-05   0.000    
   8    0.000      4.6000E-05  4.6000E-05  4.6000E-05  4.6000E-05  4.6000E-05  4.6000E-05  4.6000E-05  4.6000E-05   0.000    
   9    0.000      4.6000E-05  4.6000E-05  4.6000E-05  4.6000E-05  4.6000E-05  4.6000E-05  4.6000E-05  4.6000E-05   0.000    
  10    0.000      4.6000E-05  4.6000E-05  4.6000E-05  4.6000E-05  4.6000E-05  4.6000E-05  4.6000E-05  4.6000E-05  4.6000E-05
  11    0.000      4.6000E-05  4.6000E-05  4.6000E-05  4.6000E-05  4.6000E-05  4.6000E-05  4.6000E-05  4.6000E-05   0.000    
  12   4.6000E-05  4.6000E-05  4.6000E-05  4.6000E-05  4.6000E-05  4.6000E-05  4.6000E-05  4.6000E-05  4.6000E-05   0.000    
  13   4.6000E-05  4.6000E-05  4.6000E-05  4.6000E-05  4.6000E-05  4.6000E-05  4.6000E-05  4.6000E-05  4.6000E-05   0.000    
  14    0.000      4.6000E-05  4.6000E-05  4.6000E-05  4.6000E-05  4.6000E-05  4.6000E-05  4.6000E-05  4.6000E-05   0.000    
  15    0.000       0.000      4.6000E-05  4.6000E-05  4.6000E-05  4.6000E-05   0.000       0.000       0.000       0.000    



            LAND SURFACE VERTICAL K
 READING ON UNIT   19 WITH FORMAT: (10F4.0)            

            1           2           3           4           5           6           7           8           9          10
 ........................................................................................................................
   1   1.0000E-05  1.0000E-05   0.000       0.000       0.000       0.000       0.000       0.000       0.000       0.000    
   2   1.0000E-05  1.0000E-05  1.0000E-05   0.000       0.000      1.0000E-05  1.0000E-05  1.0000E-05   0.000       0.000    
   3    0.000      1.0000E-05  1.0000E-05  1.0000E-05  1.0000E-05  1.0000E-05  1.0000E-05  1.0000E-05   0.000       0.000    
   4   1.0000E-05  1.0000E-05  1.0000E-05  1.0000E-05  1.0000E-05  1.0000E-05  1.0000E-05  1.0000E-05  1.0000E-05   0.000    
   5   1.0000E-05  1.0000E-05  1.0000E-05  1.0000E-05  1.0000E-05  1.0000E-05  1.0000E-05  1.0000E-05  1.0000E-05  1.0000E-05
   6   1.0000E-05  1.0000E-05  1.0000E-05  1.0000E-05  1.0000E-05  1.0000E-05  1.0000E-05  1.0000E-05  1.0000E-05  1.0000E-05
   7   1.0000E-05  1.0000E-05  1.0000E-05  1.0000E-05  1.0000E-05  1.0000E-05  1.0000E-05  1.0000E-05  1.0000E-05   0.000    
   8    0.000      1.0000E-05  1.0000E-05  1.0000E-05  1.0000E-05  1.0000E-05  1.0000E-05  1.0000E-05  1.0000E-05   0.000    
   9    0.000      1.0000E-05  1.0000E-05  1.0000E-05  1.0000E-05  1.0000E-05  1.0000E-05  1.0000E-05  1.0000E-05   0.000    
  10    0.000      1.0000E-05  1.0000E-05  1.0000E-05  1.0000E-05  1.0000E-05  1.0000E-05  1.0000E-05  1.0000E-05  1.0000E-05
  11    0.000      1.0000E-05  1.0000E-05  1.0000E-05  1.0000E-05  1.0000E-05  1.0000E-05  1.0000E-05  1.0000E-05   0.000    
  12   1.0000E-05  1.0000E-05  1.0000E-05  1.0000E-05  1.0000E-05  1.0000E-05  1.0000E-05  1.0000E-05  1.0000E-05   0.000    
  13   1.0000E-05  1.0000E-05  1.0000E-05  1.0000E-05  1.0000E-05  1.0000E-05  1.0000E-05  1.0000E-05  1.0000E-05   0.000    
  14    0.000      1.0000E-05  1.0000E-05  1.0000E-05  1.0000E-05  1.0000E-05  1.0000E-05  1.0000E-05  1.0000E-05   0.000    
  15    0.000       0.000      1.0000E-05  1.0000E-05  1.0000E-05  1.0000E-05   0.000       0.000       0.000       0.000    

     BROOKS-COREY EPSILON =   7.50000    

  SATURATED WATER CONTENT =  0.380000    

   RESIDUAL WATER CONTENT =  0.200000    

    INITIAL WATER CONTENT =  0.200000    

UNSATURATED FLOW RESULTS WILL BE PRINTED TO SEPARATE FILES FOR SELECTED MODEL CELLS, AND TIME STEPS AS DEFINED BY OUTPUT CONTROL PACKAGE 

SELECTED MODEL CELLS ARE: 
 ROW NUMBER  COLUMN NUMBER  FORTRAN UNIT NUMBER  OUTPUT OPTION


       6             4                 65                 1
       6             5                 66                 2
       8             4                 67                 3
       0             0                 68                 4



   9 GAGING STATIONS WERE SPECIFIED.
     (Lakes are identified by a negative value of the Lake Number)
     RECORDS WILL BE WRITTEN TO SEPARATE OUTPUT FILES REPRESENTED BY FOLLOWING UNIT NUMBERS:

 Stream Gages:
  GAGE #   SEGMENT   REACH   UNIT   OUTTYPE
       1       1       4      83       1
       2       2       5      84       1
       3       3       5      85       1
       4       4       3      86       1
       5       5       4      87       4
       6       6       5      88       4
       7       7       3      89       4
       8       8       6      90       4
       9       9       1      91       5





 AG -- AG PACKAGE FOR NWT VERSION 1.2.0,  3/03/2020 INPUT READ FROM UNIT   57
 # AG options

 PROCESSING AG OPTIONS
 
 AGRICULTURAL DEMANDS WILL BE CALCULATED USING ET DEFICIT
 
 
 OPTION TO APPLY SURFACE WATER AS IRRIGATION IS ACTIVE. DIVERTED SURFACE WATER WILL BE APPLIED TO          1 CELLS/RHUS.
 
 
 OPTION TO PUMP SUPPLEMENTARY WATER FOR SURFACE DIVERSION SHORTFALL IS ACTIVATED.  A TOTAL OF             6 SUPPLEMENTAL WELLS ARE ACTIVE
 
 
 OPTION TO APPLY PUMPED WATER AS IRRIGATION IS ACTIVE. PUMPED IRRIGATION WATER WILL BE APPLIED TO          6 CELLS/RHUS.
 
 
 THE MAXIMUM NUMBER OF WELLS FOR SUPPLEMENTING DIVERSIONS OR APPLYING IRRIGATION IS          6 WELLS.
 
 
  UNFORMATTED CELL BY CELL RATES FOR SUP AND IRR WELLS WILL BE SAVED TO FILE UNIT NUMBER         -2
 
 
  UNFORMATTED CELL BY CELL RATES FOR SUP AND IRR WELLS WILL BE SAVED TO FILE UNIT NUMBER         -2
 
 
  UNFORMATTED CELL BY CELL RATES FOR SUP AND IRR WELLS WILL BE SAVED TO FILE UNIT NUMBER         -2
 
 
  UNFORMATTED CELL BY CELL RATES FOR SUP AND IRR WELLS WILL BE SAVED TO FILE UNIT NUMBER         -2
 
 
  GROUND WATER IRRIGATION, POTENTIAL AND ACTUAL ET WILL BE SAVED TO TIMES SERIES OUTPUT FILES.
 
 
  SURFACE WATER IRRIGATION, POTENTIAL AND ACTUAL ET WILL BE SAVED TO TIMES SERIES OUTPUT FILES.
 
 
  SURFACE WATER IRRIGATION, POTENTIAL AND ACTUAL ET WILL BE SAVED TO TIMES SERIES OUTPUT FILES.
 

 END PROCESSING AG OPTIONS
 # AG time series

 PROCESSING TIME SERIES

 FINISHED READING TIME SERIES
 A total number of          1 AG output time series files were activated for SURFACE WATER 
 A total number of          1 AG output time series files were activated for GROUNDWATER 
 A total number of          1 AG output time series files were activated for SURFACE WATER ET
 A total number of          0 AG output time series files were activated for GROUNDWATER ET
 A total number of          0 AG output time series files were activated for POND ET
 A total number of          0 AG output time series files were activated for POND IRRIGATION
1
                            STRESS PERIOD NO.    1, LENGTH =   86400.00    
                            -----------------------------------------------

                              NUMBER OF TIME STEPS =     1

                               MULTIPLIER FOR DELT =     1.000

                            INITIAL TIME STEP SIZE =   86400.00    

 BOUND. NO. LAYER   ROW   COL     STAGE      CONDUCTANCE         
 ----------------------------------------------------------------
      1      1     13      1       988.0          0.3800E-01
      2      1     14      9       1045.          0.3800E-01

      2 GHB CELLS



 CLASSIFICATION & COUNT OF STREAM SEGMENTS BASED ON SOURCE OF INFLOW:

                HEADWATER     DIVERSION     RECEIVES TRIBUTARY FLOW
                ---------     ---------     -----------------------
                     3              2               4



                    INPUT DATA FOR EACH STREAM SEGMENT
 ---------------------------------------------------------------------------------------------

 SEGMENT    SEG.     INFLOW   OVERLAND   STREAM    STREAM   ICALC  OUTFLOW  DIVERSION PRIORITY
    NO.    LENGTH     RATE     RUNOFF      ET       PPT.    METH.  TO SEG.  FROM SEG.    NO.

      1  2.305E+04 2.500E+01 0.000E+00 0.000E+00 0.000E+00    4        2        0        0
      2  2.650E+04 0.000E+00 0.000E+00 0.000E+00 0.000E+00    1        6        0        0
      3  2.750E+04 2.000E+00 0.000E+00 0.000E+00 0.000E+00    0        5        1        0
      4  1.100E+04 1.000E+01 0.000E+00 0.000E+00 0.000E+00    1        5        0        0
      5  1.500E+04 0.000E+00 0.000E+00 0.000E+00 0.000E+00    3        6        0        0
      6  2.200E+04 0.000E+00 0.000E+00 0.000E+00 0.000E+00    1        8        0        0
      7  1.550E+04 1.500E+02 0.000E+00 0.000E+00 0.000E+00    2        8        0        0
      8  2.800E+04 0.000E+00 0.000E+00 0.000E+00 0.000E+00    2        0        0        0
      9  6.000E+03 0.000E+00 0.000E+00 0.000E+00 0.000E+00    1        0        2        0


         STREAMBED PROPERTIES AND STREAM DIMENSIONS

 SEGMENT     BED HYD. COND.      BED THICKNESS     ELEV.-TOP OF BED     WIDTH OF STREAM     DEPTH OF STREAM    STREAM ROUGHNESS
    No.     UPPER     LOWER     UPPER     LOWER     UPPER     LOWER     UPPER     LOWER     UPPER     LOWER   CHANNEL      BANK

     1  3.000E-05 3.000E-05 3.000E+00 3.000E+00 1.095E+03 1.075E+03
     2  3.000E-05 3.000E-05 3.000E+00 3.000E+00 1.075E+03 1.050E+03 1.200E+01 1.200E+01                     3.000E-02
     3  3.000E-05 3.000E-05 2.000E+00 2.000E+00 1.075E+03 1.060E+03 1.000E+01 6.000E+00 2.000E+00 1.000E+00
     4  3.000E-05 3.000E-05 3.000E+00 3.000E+00 1.080E+03 1.060E+03 1.000E+01 1.000E+01                     3.000E-02
     5  3.000E-05 3.000E-05 3.000E+00 3.000E+00 1.060E+03 1.045E+03
     6  3.000E-05 3.000E-05 3.000E+00 3.000E+00 1.045E+03 1.025E+03 1.200E+01 1.200E+01                     3.000E-02
     7  6.000E-05 6.000E-05 3.000E+00 3.000E+00 1.040E+03 1.025E+03                                         2.500E-02 4.500E-02
     8  6.000E-05 6.000E-05 3.000E+00 3.000E+00 1.025E+03 9.900E+02                                         2.500E-02 4.500E-02
     9  0.000E+00 0.000E+00 3.000E+00 3.000E+00 1.079E+03 1.078E+03 4.000E+00 4.000E+00                     3.000E-02

  EIGHT POINT CROSS-SECTION DATA FOR SEGMENTS WITH ICALC = 2
    X VALUES X VALUES START FROM LEFT SIDE LOOKING DOWNSTREAM

     SEGMENT NO.        X1        X2        X3        X4        X5        X6        X7        X8
            7      0.000E+00 1.000E+01 8.000E+01 1.000E+02 1.500E+02 1.700E+02 2.400E+02 2.500E+02
            8      0.000E+00 1.000E+01 8.000E+01 1.000E+02 1.500E+02 1.700E+02 2.400E+02 2.500E+02

    Z VALUES ARE RELATIVE TO STREAMBED ELEVATION

     SEGMENT NO.          Z1        Z2        Z3        Z4        Z5        Z6        Z7        Z8
            7      2.000E+01 1.300E+01 1.000E+01 2.000E+00 0.000E+00 1.000E+01 1.300E+01 2.000E+01
            8      2.500E+01 1.700E+01 1.300E+01 4.000E+00 0.000E+00 1.000E+01 1.600E+01 2.000E+01

 STREAMFLOW RELATION WITH DEPTH IS BASED ON EQUATION Q = CDPTH*(DEPTH)**FDPTH
 STREAMFLOW RELATION WITH WIDTH IS BASED ON EQUATION Q = AWDTH*(WIDTH)**BWDTH

 SEGMENT NO.      CDPTH     FDPTH    AWDTH     BWDTH

          5 3.000E-01 3.500E-01 3.800E+00 6.000E-01

 STREAMFLOW RELATION WITH DEPTH AND WIDTH IS BASED ON TABULATED VALUES

  SEGMENT NO.   STREAMFLOW       DEPTH       WIDTH

          1     5.0000E-01   2.5000E-01   3.0000E+00
          1     1.0000E+00   4.0000E-01   3.5000E+00
          1     2.0000E+00   5.5000E-01   4.2000E+00
          1     4.0000E+00   7.0000E-01   5.3000E+00
          1     7.0000E+00   8.0000E-01   7.0000E+00
          1     1.0000E+01   9.0000E-01   8.5000E+00
          1     2.0000E+01   1.1000E+00   1.2000E+01
          1     3.0000E+01   1.2500E+00   1.4000E+01
          1     5.0000E+01   1.4000E+00   1.7000E+01
          1     7.5000E+01   1.7000E+00   2.0000E+01
          1     1.0000E+02   1.8000E+00   2.2000E+01



TABULAR INFLOWS WERE READ FOR SEGMENT      1
FROM FILE UNIT NUMBER     55

          TIMES                    INFLOWS
         0.0000000000E+00     0.3750000000E+01
         0.8640000000E+05     0.1650000000E+02
         0.2760000000E+07     0.3150000000E+02
         0.5270000000E+07     0.5775000000E+02
         0.7950000000E+07     0.2100000000E+02
         0.1050000000E+08     0.7425000000E+02
         0.1320000000E+08     0.6225000000E+02
         0.1580000000E+08     0.5625000000E+02
         0.1850000000E+08     0.4575000000E+02
         0.2120000000E+08     0.3525000000E+02
         0.2380000000E+08     0.2625000000E+02
         0.2640000000E+08     0.1950000000E+02
         0.2900000000E+08     0.1725000000E+02
         0.3170000000E+08     0.1425000000E+02
         0.3440000000E+08     0.1575000000E+02
         0.3680000000E+08     0.7350000000E+02
         0.3950000000E+08     0.5625000000E+02
         0.4210000000E+08     0.4725000000E+02
         0.4480000000E+08     0.4350000000E+02
         0.4730000000E+08     0.4050000000E+02
         0.5000000000E+08     0.2775000000E+02
         0.5270000000E+08     0.1875000000E+02
         0.5530000000E+08     0.1650000000E+02
         0.5800000000E+08     0.1575000000E+02
         0.6060000000E+08     0.1500000000E+02
         0.6320000000E+08     0.1425000000E+02
         0.6330000000E+08     0.1650000000E+02
         0.6600000000E+08     0.3150000000E+02
         0.6850000000E+08     0.5775000000E+02
         0.7120000000E+08     0.2100000000E+02
         0.7370000000E+08     0.7425000000E+02
         0.7640000000E+08     0.6225000000E+02
         0.7900000000E+08     0.5625000000E+02
         0.8170000000E+08     0.4575000000E+02
         0.8440000000E+08     0.3525000000E+02
         0.8700000000E+08     0.2625000000E+02
         0.8960000000E+08     0.1950000000E+02
         0.9220000000E+08     0.1725000000E+02
         0.9490000000E+08     0.1425000000E+02
         0.9760000000E+08     0.1575000000E+02
         0.1000000000E+09     0.7350000000E+02
         0.1030000000E+09     0.5625000000E+02
         0.1050000000E+09     0.4725000000E+02
         0.1080000000E+09     0.4350000000E+02
         0.1110000000E+09     0.4050000000E+02
         0.1130000000E+09     0.2775000000E+02
         0.1160000000E+09     0.1875000000E+02
         0.1190000000E+09     0.1650000000E+02
         0.1210000000E+09     0.1575000000E+02
         0.1240000000E+09     0.1500000000E+02
         0.1260000000E+09     0.1425000000E+02
TABULAR INFLOWS WERE READ FOR SEGMENT      9
FROM FILE UNIT NUMBER     56

          TIMES                    INFLOWS
         0.0000000000E+00     0.1000000000E+03
         0.8640000000E+05     0.1000000000E+03
         0.1730000000E+06     0.1000000000E+03
         0.2590000000E+06     0.1000000000E+03
         0.3460000000E+06     0.1000000000E+03
         0.4320000000E+06     0.1000000000E+03
         0.5180000000E+06     0.1000000000E+03
         0.6050000000E+06     0.1000000000E+03
         0.6910000000E+06     0.1000000000E+03
         0.7780000000E+06     0.1000000000E+03
         0.8640000000E+06     0.1000000000E+03
         0.9500000000E+06     0.1000000000E+03
         0.1040000000E+07     0.1000000000E+03
         0.1120000000E+07     0.1000000000E+03
         0.1210000000E+07     0.1000000000E+03
         0.1300000000E+07     0.1000000000E+03
         0.1380000000E+07     0.1000000000E+03
         0.1470000000E+07     0.1000000000E+03
         0.1560000000E+07     0.1000000000E+03
         0.1640000000E+07     0.1000000000E+03
         0.1730000000E+07     0.1000000000E+03
         0.1810000000E+07     0.1000000000E+03
         0.1900000000E+07     0.1000000000E+03
         0.1990000000E+07     0.1000000000E+03
         0.2070000000E+07     0.1000000000E+03
         0.2160000000E+07     0.1000000000E+03
         0.2250000000E+07     0.1000000000E+03
         0.2330000000E+07     0.1000000000E+03
         0.2420000000E+07     0.1000000000E+03
         0.2510000000E+07     0.1000000000E+03
         0.2590000000E+07     0.1000000000E+03
         0.2680000000E+07     0.1000000000E+03
         0.2760000000E+07     0.1000000000E+03
         0.2850000000E+07     0.1000000000E+03
         0.2940000000E+07     0.1000000000E+03
         0.3020000000E+07     0.1000000000E+03
         0.3110000000E+07     0.1000000000E+03
         0.3200000000E+07     0.1000000000E+03
         0.3280000000E+07     0.1000000000E+03
         0.3370000000E+07     0.1000000000E+03
         0.3460000000E+07     0.1000000000E+03
         0.3540000000E+07     0.1000000000E+03
         0.3630000000E+07     0.1000000000E+03
         0.3720000000E+07     0.1000000000E+03
         0.3800000000E+07     0.1000000000E+03
         0.3890000000E+07     0.1000000000E+03
         0.3970000000E+07     0.1000000000E+03
         0.4060000000E+07     0.1000000000E+03
         0.4150000000E+07     0.1000000000E+03
         0.4230000000E+07     0.1000000000E+03
         0.4320000000E+07     0.1000000000E+03
         0.4410000000E+07     0.1000000000E+03
         0.4490000000E+07     0.1000000000E+03
         0.4580000000E+07     0.1000000000E+03
         0.4670000000E+07     0.1000000000E+03
         0.4750000000E+07     0.1000000000E+03
         0.4840000000E+07     0.1000000000E+03
         0.4920000000E+07     0.1000000000E+03
         0.5010000000E+07     0.1000000000E+03
         0.5100000000E+07     0.1000000000E+03
         0.5180000000E+07     0.1000000000E+03
         0.5270000000E+07     0.1000000000E+03
         0.5360000000E+07     0.1000000000E+03
         0.5440000000E+07     0.1000000000E+03
         0.5530000000E+07     0.1000000000E+03
         0.5620000000E+07     0.1000000000E+03
         0.5700000000E+07     0.1000000000E+03
         0.5790000000E+07     0.1000000000E+03
         0.5880000000E+07     0.1000000000E+03
         0.5960000000E+07     0.1000000000E+03
         0.6050000000E+07     0.1000000000E+03
         0.6130000000E+07     0.1000000000E+03
         0.6220000000E+07     0.1000000000E+03
         0.6310000000E+07     0.1000000000E+03
         0.6390000000E+07     0.1000000000E+03
         0.6480000000E+07     0.1000000000E+03
         0.6570000000E+07     0.1000000000E+03
         0.6650000000E+07     0.1000000000E+03
         0.6740000000E+07     0.1000000000E+03
         0.6830000000E+07     0.1000000000E+03
         0.6910000000E+07     0.1000000000E+03
         0.7000000000E+07     0.1000000000E+03
         0.7080000000E+07     0.1000000000E+03
         0.7170000000E+07     0.1000000000E+03
         0.7260000000E+07     0.1000000000E+03
         0.7340000000E+07     0.1000000000E+03
         0.7430000000E+07     0.1000000000E+03
         0.7520000000E+07     0.1000000000E+03
         0.7600000000E+07     0.1000000000E+03
         0.7690000000E+07     0.1000000000E+03
         0.7780000000E+07     0.1000000000E+03
         0.7860000000E+07     0.1000000000E+03
         0.7950000000E+07     0.1000000000E+03
         0.8040000000E+07     0.1000000000E+03
         0.8120000000E+07     0.1000000000E+03
         0.8210000000E+07     0.1000000000E+03
         0.8290000000E+07     0.1000000000E+03
         0.8380000000E+07     0.1000000000E+03
         0.8470000000E+07     0.1000000000E+03
         0.8550000000E+07     0.1000000000E+03
         0.8640000000E+07     0.1000000000E+03
         0.8730000000E+07     0.1000000000E+03
         0.8810000000E+07     0.1000000000E+03
         0.8900000000E+07     0.1000000000E+03
         0.8990000000E+07     0.1000000000E+03
         0.9070000000E+07     0.1000000000E+03
         0.9160000000E+07     0.1000000000E+03
         0.9240000000E+07     0.1000000000E+03
         0.9330000000E+07     0.1000000000E+03
         0.9420000000E+07     0.1000000000E+03
         0.9500000000E+07     0.1000000000E+03
         0.9590000000E+07     0.1000000000E+03
         0.9680000000E+07     0.1000000000E+03
         0.9760000000E+07     0.1000000000E+03
         0.9850000000E+07     0.1000000000E+03
         0.9940000000E+07     0.1000000000E+03
         0.1000000000E+08     0.1000000000E+03
         0.1010000000E+08     0.1000000000E+03
         0.1020000000E+08     0.1000000000E+03
         0.1030000000E+08     0.1000000000E+03
         0.1040000000E+08     0.1000000000E+03
         0.1050000000E+08     0.1000000000E+03
         0.1050000000E+08     0.1000000000E+03
         0.1060000000E+08     0.1000000000E+03
         0.1070000000E+08     0.1000000000E+03
         0.1080000000E+08     0.1000000000E+03
         0.1090000000E+08     0.1000000000E+03
         0.1100000000E+08     0.1000000000E+03
         0.1110000000E+08     0.1000000000E+03
         0.1110000000E+08     0.1000000000E+03
         0.1120000000E+08     0.1000000000E+03
         0.1130000000E+08     0.1000000000E+03
         0.1140000000E+08     0.1000000000E+03
         0.1150000000E+08     0.1000000000E+03
         0.1160000000E+08     0.1000000000E+03
         0.1170000000E+08     0.1000000000E+03
         0.1180000000E+08     0.1000000000E+03
         0.1180000000E+08     0.1000000000E+03
         0.1190000000E+08     0.1000000000E+03
         0.1200000000E+08     0.1000000000E+03
         0.1210000000E+08     0.1000000000E+03
         0.1220000000E+08     0.1000000000E+03
         0.1230000000E+08     0.1000000000E+03
         0.1240000000E+08     0.1000000000E+03
         0.1240000000E+08     0.1000000000E+03
         0.1250000000E+08     0.1000000000E+03
         0.1260000000E+08     0.1000000000E+03
         0.1270000000E+08     0.1000000000E+03
         0.1280000000E+08     0.1000000000E+03
         0.1290000000E+08     0.1000000000E+03
         0.1300000000E+08     0.1000000000E+03
         0.1300000000E+08     0.1000000000E+03
         0.1310000000E+08     0.1000000000E+03
         0.1320000000E+08     0.1000000000E+03
         0.1330000000E+08     0.1000000000E+03
         0.1340000000E+08     0.1000000000E+03
         0.1350000000E+08     0.1000000000E+03
         0.1360000000E+08     0.1000000000E+03
         0.1370000000E+08     0.1000000000E+03
         0.1370000000E+08     0.1000000000E+03
         0.1380000000E+08     0.1000000000E+03
         0.1390000000E+08     0.1000000000E+03
         0.1400000000E+08     0.1000000000E+03
         0.1410000000E+08     0.1000000000E+03
         0.1420000000E+08     0.1000000000E+03
         0.1430000000E+08     0.1000000000E+03
         0.1430000000E+08     0.1000000000E+03
         0.1440000000E+08     0.1000000000E+03
         0.1450000000E+08     0.1000000000E+03
         0.1460000000E+08     0.1000000000E+03
         0.1470000000E+08     0.1000000000E+03
         0.1480000000E+08     0.1000000000E+03
         0.1490000000E+08     0.1000000000E+03
         0.1490000000E+08     0.1000000000E+03
         0.1500000000E+08     0.1000000000E+03
         0.1510000000E+08     0.1000000000E+03
         0.1520000000E+08     0.1000000000E+03
         0.1530000000E+08     0.1000000000E+03
         0.1540000000E+08     0.1000000000E+03
         0.1550000000E+08     0.1000000000E+03
         0.1560000000E+08     0.1000000000E+03
         0.1560000000E+08     0.1000000000E+03
         0.1570000000E+08     0.1000000000E+03
         0.1580000000E+08     0.1000000000E+03
         0.1590000000E+08     0.1000000000E+03
         0.1600000000E+08     0.1000000000E+03
         0.1610000000E+08     0.1000000000E+03
         0.1620000000E+08     0.1000000000E+03
         0.1620000000E+08     0.1000000000E+03
         0.1630000000E+08     0.1000000000E+03
         0.1640000000E+08     0.1000000000E+03
         0.1650000000E+08     0.1000000000E+03
         0.1660000000E+08     0.1000000000E+03
         0.1670000000E+08     0.1000000000E+03
         0.1680000000E+08     0.1000000000E+03
         0.1680000000E+08     0.1000000000E+03
         0.1690000000E+08     0.1000000000E+03
         0.1700000000E+08     0.1000000000E+03
         0.1710000000E+08     0.1000000000E+03
         0.1720000000E+08     0.1000000000E+03
         0.1730000000E+08     0.1000000000E+03
         0.1740000000E+08     0.1000000000E+03
         0.1750000000E+08     0.1000000000E+03
         0.1750000000E+08     0.1000000000E+03
         0.1760000000E+08     0.1000000000E+03
         0.1770000000E+08     0.1000000000E+03
         0.1780000000E+08     0.1000000000E+03
         0.1790000000E+08     0.1000000000E+03
         0.1800000000E+08     0.1000000000E+03
         0.1810000000E+08     0.1000000000E+03
         0.1810000000E+08     0.1000000000E+03
         0.1820000000E+08     0.1000000000E+03
         0.1830000000E+08     0.1000000000E+03
         0.1840000000E+08     0.1000000000E+03
         0.1850000000E+08     0.1000000000E+03
         0.1860000000E+08     0.1000000000E+03
         0.1870000000E+08     0.1000000000E+03
         0.1870000000E+08     0.1000000000E+03
         0.1880000000E+08     0.1000000000E+03
         0.1890000000E+08     0.1000000000E+03
         0.1900000000E+08     0.1000000000E+03
         0.1910000000E+08     0.1000000000E+03
         0.1920000000E+08     0.1000000000E+03
         0.1930000000E+08     0.1000000000E+03
         0.1940000000E+08     0.1000000000E+03
         0.1940000000E+08     0.1000000000E+03
         0.1950000000E+08     0.1000000000E+03
         0.1960000000E+08     0.1000000000E+03
         0.1970000000E+08     0.1000000000E+03
         0.1980000000E+08     0.1000000000E+03
         0.1990000000E+08     0.1000000000E+03
         0.2000000000E+08     0.1000000000E+03
         0.2000000000E+08     0.1000000000E+03
         0.2010000000E+08     0.1000000000E+03
         0.2020000000E+08     0.1000000000E+03
         0.2030000000E+08     0.1000000000E+03
         0.2040000000E+08     0.1000000000E+03
         0.2050000000E+08     0.1000000000E+03
         0.2060000000E+08     0.1000000000E+03
         0.2070000000E+08     0.1000000000E+03
         0.2070000000E+08     0.1000000000E+03
         0.2080000000E+08     0.1000000000E+03
         0.2090000000E+08     0.1000000000E+03
         0.2100000000E+08     0.1000000000E+03
         0.2110000000E+08     0.1000000000E+03
         0.2120000000E+08     0.1000000000E+03
         0.2130000000E+08     0.1000000000E+03
         0.2130000000E+08     0.1000000000E+03
         0.2140000000E+08     0.1000000000E+03
         0.2150000000E+08     0.1000000000E+03
         0.2160000000E+08     0.1000000000E+03
         0.2170000000E+08     0.1000000000E+03
         0.2180000000E+08     0.1000000000E+03
         0.2190000000E+08     0.1000000000E+03
         0.2190000000E+08     0.1000000000E+03
         0.2200000000E+08     0.1000000000E+03
         0.2210000000E+08     0.1000000000E+03
         0.2220000000E+08     0.1000000000E+03
         0.2230000000E+08     0.1000000000E+03
         0.2240000000E+08     0.1000000000E+03
         0.2250000000E+08     0.1000000000E+03
         0.2260000000E+08     0.1000000000E+03
         0.2260000000E+08     0.1000000000E+03
         0.2270000000E+08     0.1000000000E+03
         0.2280000000E+08     0.1000000000E+03
         0.2290000000E+08     0.1000000000E+03
         0.2300000000E+08     0.1000000000E+03
         0.2310000000E+08     0.1000000000E+03
         0.2320000000E+08     0.1000000000E+03
         0.2320000000E+08     0.1000000000E+03
         0.2330000000E+08     0.1000000000E+03
         0.2340000000E+08     0.1000000000E+03
         0.2350000000E+08     0.1000000000E+03
         0.2360000000E+08     0.1000000000E+03
         0.2370000000E+08     0.1000000000E+03
         0.2380000000E+08     0.1000000000E+03
         0.2380000000E+08     0.1000000000E+03
         0.2390000000E+08     0.1000000000E+03
         0.2400000000E+08     0.1000000000E+03
         0.2410000000E+08     0.1000000000E+03
         0.2420000000E+08     0.1000000000E+03
         0.2430000000E+08     0.1000000000E+03
         0.2440000000E+08     0.1000000000E+03
         0.2450000000E+08     0.1000000000E+03
         0.2450000000E+08     0.1000000000E+03
         0.2460000000E+08     0.1000000000E+03
         0.2470000000E+08     0.1000000000E+03
         0.2480000000E+08     0.1000000000E+03
         0.2490000000E+08     0.1000000000E+03
         0.2500000000E+08     0.1000000000E+03
         0.2510000000E+08     0.1000000000E+03
         0.2510000000E+08     0.1000000000E+03
         0.2520000000E+08     0.1000000000E+03
         0.2530000000E+08     0.1000000000E+03
         0.2540000000E+08     0.1000000000E+03
         0.2550000000E+08     0.1000000000E+03
         0.2560000000E+08     0.1000000000E+03
         0.2570000000E+08     0.1000000000E+03
         0.2570000000E+08     0.1000000000E+03
         0.2580000000E+08     0.1000000000E+03
         0.2590000000E+08     0.1000000000E+03
         0.2600000000E+08     0.1000000000E+03
         0.2610000000E+08     0.1000000000E+03
         0.2620000000E+08     0.1000000000E+03
         0.2630000000E+08     0.1000000000E+03
         0.2640000000E+08     0.1000000000E+03
         0.2640000000E+08     0.1000000000E+03
         0.2650000000E+08     0.1000000000E+03
         0.2660000000E+08     0.1000000000E+03
         0.2670000000E+08     0.1000000000E+03
         0.2680000000E+08     0.1000000000E+03
         0.2690000000E+08     0.1000000000E+03
         0.2700000000E+08     0.1000000000E+03
         0.2700000000E+08     0.1000000000E+03
         0.2710000000E+08     0.1000000000E+03
         0.2720000000E+08     0.1000000000E+03
         0.2730000000E+08     0.1000000000E+03
         0.2740000000E+08     0.1000000000E+03
         0.2750000000E+08     0.1000000000E+03
         0.2760000000E+08     0.1000000000E+03
         0.2760000000E+08     0.1000000000E+03
         0.2770000000E+08     0.1000000000E+03
         0.2780000000E+08     0.1000000000E+03
         0.2790000000E+08     0.1000000000E+03
         0.2800000000E+08     0.1000000000E+03
         0.2810000000E+08     0.1000000000E+03
         0.2820000000E+08     0.1000000000E+03
         0.2830000000E+08     0.1000000000E+03
         0.2830000000E+08     0.1000000000E+03
         0.2840000000E+08     0.1000000000E+03
         0.2850000000E+08     0.1000000000E+03
         0.2860000000E+08     0.1000000000E+03
         0.2870000000E+08     0.1000000000E+03
         0.2880000000E+08     0.1000000000E+03
         0.2890000000E+08     0.1000000000E+03
         0.2890000000E+08     0.1000000000E+03
         0.2900000000E+08     0.1000000000E+03
         0.2910000000E+08     0.1000000000E+03
         0.2920000000E+08     0.1000000000E+03
         0.2930000000E+08     0.1000000000E+03
         0.2940000000E+08     0.1000000000E+03
         0.2950000000E+08     0.1000000000E+03
         0.2950000000E+08     0.1000000000E+03
         0.2960000000E+08     0.1000000000E+03
         0.2970000000E+08     0.1000000000E+03
         0.2980000000E+08     0.1000000000E+03
         0.2990000000E+08     0.1000000000E+03
         0.3000000000E+08     0.1000000000E+03
         0.3010000000E+08     0.1000000000E+03
         0.3020000000E+08     0.1000000000E+03
         0.3020000000E+08     0.1000000000E+03
         0.3030000000E+08     0.1000000000E+03
         0.3040000000E+08     0.1000000000E+03
         0.3050000000E+08     0.1000000000E+03
         0.3060000000E+08     0.1000000000E+03
         0.3070000000E+08     0.1000000000E+03
         0.3080000000E+08     0.1000000000E+03
         0.3080000000E+08     0.1000000000E+03
         0.3090000000E+08     0.1000000000E+03
         0.3100000000E+08     0.1000000000E+03
         0.3110000000E+08     0.1000000000E+03
         0.3120000000E+08     0.1000000000E+03
         0.3130000000E+08     0.1000000000E+03
         0.3140000000E+08     0.1000000000E+03
         0.3150000000E+08     0.1000000000E+03
         0.3150000000E+08     0.1000000000E+03
         0.3160000000E+08     0.1000000000E+03
         0.3170000000E+08     0.1000000000E+03
         0.3180000000E+08     0.1000000000E+03
         0.3190000000E+08     0.1000000000E+03
         0.3200000000E+08     0.1000000000E+03
         0.3210000000E+08     0.1000000000E+03
         0.3210000000E+08     0.1000000000E+03
         0.3220000000E+08     0.1000000000E+03
         0.3230000000E+08     0.1000000000E+03
         0.3240000000E+08     0.1000000000E+03
         0.3250000000E+08     0.1000000000E+03
         0.3260000000E+08     0.1000000000E+03
         0.3270000000E+08     0.1000000000E+03
         0.3270000000E+08     0.1000000000E+03
         0.3280000000E+08     0.1000000000E+03
         0.3290000000E+08     0.1000000000E+03
         0.3300000000E+08     0.1000000000E+03
         0.3310000000E+08     0.1000000000E+03
         0.3320000000E+08     0.1000000000E+03
         0.3330000000E+08     0.1000000000E+03
         0.3340000000E+08     0.1000000000E+03
         0.3340000000E+08     0.1000000000E+03
         0.3350000000E+08     0.1000000000E+03
         0.3360000000E+08     0.1000000000E+03
         0.3370000000E+08     0.1000000000E+03
         0.3380000000E+08     0.1000000000E+03
         0.3390000000E+08     0.1000000000E+03
         0.3400000000E+08     0.1000000000E+03
         0.3400000000E+08     0.1000000000E+03
         0.3410000000E+08     0.1000000000E+03
         0.3420000000E+08     0.1000000000E+03
         0.3430000000E+08     0.1000000000E+03
         0.3440000000E+08     0.1000000000E+03
         0.3450000000E+08     0.1000000000E+03
         0.3460000000E+08     0.1000000000E+03
         0.3460000000E+08     0.1000000000E+03
         0.3470000000E+08     0.1000000000E+03
         0.3480000000E+08     0.1000000000E+03
         0.3490000000E+08     0.1000000000E+03
         0.3500000000E+08     0.1000000000E+03
         0.3510000000E+08     0.1000000000E+03
         0.3520000000E+08     0.1000000000E+03
         0.3530000000E+08     0.1000000000E+03
         0.3530000000E+08     0.1000000000E+03
         0.3540000000E+08     0.1000000000E+03
         0.3550000000E+08     0.1000000000E+03
         0.3560000000E+08     0.1000000000E+03
         0.3570000000E+08     0.1000000000E+03
         0.3580000000E+08     0.1000000000E+03
         0.3590000000E+08     0.1000000000E+03
         0.3590000000E+08     0.1000000000E+03
         0.3600000000E+08     0.1000000000E+03
         0.3610000000E+08     0.1000000000E+03
         0.3620000000E+08     0.1000000000E+03
         0.3630000000E+08     0.1000000000E+03
         0.3640000000E+08     0.1000000000E+03
         0.3650000000E+08     0.1000000000E+03
         0.3650000000E+08     0.1000000000E+03
         0.3660000000E+08     0.1000000000E+03
         0.3670000000E+08     0.1000000000E+03
         0.3680000000E+08     0.1000000000E+03
         0.3690000000E+08     0.1000000000E+03
         0.3700000000E+08     0.1000000000E+03
         0.3710000000E+08     0.1000000000E+03
         0.3720000000E+08     0.1000000000E+03
         0.3720000000E+08     0.1000000000E+03
         0.3730000000E+08     0.1000000000E+03
         0.3740000000E+08     0.1000000000E+03
         0.3750000000E+08     0.1000000000E+03
         0.3760000000E+08     0.1000000000E+03
         0.3770000000E+08     0.1000000000E+03
         0.3780000000E+08     0.1000000000E+03
         0.3780000000E+08     0.1000000000E+03
         0.3790000000E+08     0.1000000000E+03
         0.3800000000E+08     0.1000000000E+03
         0.3810000000E+08     0.1000000000E+03
         0.3820000000E+08     0.1000000000E+03
         0.3830000000E+08     0.1000000000E+03
         0.3840000000E+08     0.1000000000E+03
         0.3840000000E+08     0.1000000000E+03
         0.3850000000E+08     0.1000000000E+03
         0.3860000000E+08     0.1000000000E+03
         0.3870000000E+08     0.1000000000E+03
         0.3880000000E+08     0.1000000000E+03
         0.3890000000E+08     0.1000000000E+03
         0.3900000000E+08     0.1000000000E+03
         0.3910000000E+08     0.1000000000E+03
         0.3910000000E+08     0.1000000000E+03
         0.3920000000E+08     0.1000000000E+03
         0.3930000000E+08     0.1000000000E+03
         0.3940000000E+08     0.1000000000E+03
         0.3950000000E+08     0.1000000000E+03
         0.3960000000E+08     0.1000000000E+03
         0.3970000000E+08     0.1000000000E+03
         0.3970000000E+08     0.1000000000E+03
         0.3980000000E+08     0.1000000000E+03
         0.3990000000E+08     0.1000000000E+03
         0.4000000000E+08     0.1000000000E+03
         0.4010000000E+08     0.1000000000E+03
         0.4020000000E+08     0.1000000000E+03
         0.4030000000E+08     0.1000000000E+03
         0.4030000000E+08     0.1000000000E+03
         0.4040000000E+08     0.1000000000E+03
         0.4050000000E+08     0.1000000000E+03
         0.4060000000E+08     0.1000000000E+03
         0.4070000000E+08     0.1000000000E+03
         0.4080000000E+08     0.1000000000E+03
         0.4090000000E+08     0.1000000000E+03
         0.4100000000E+08     0.1000000000E+03
         0.4100000000E+08     0.1000000000E+03
         0.4110000000E+08     0.1000000000E+03
         0.4120000000E+08     0.1000000000E+03
         0.4130000000E+08     0.1000000000E+03
         0.4140000000E+08     0.1000000000E+03
         0.4150000000E+08     0.1000000000E+03
         0.4160000000E+08     0.1000000000E+03
         0.4160000000E+08     0.1000000000E+03
         0.4170000000E+08     0.1000000000E+03
         0.4180000000E+08     0.1000000000E+03
         0.4190000000E+08     0.1000000000E+03
         0.4200000000E+08     0.1000000000E+03
         0.4210000000E+08     0.1000000000E+03
         0.4220000000E+08     0.1000000000E+03
         0.4230000000E+08     0.1000000000E+03
         0.4230000000E+08     0.1000000000E+03
         0.4240000000E+08     0.1000000000E+03
         0.4250000000E+08     0.1000000000E+03
         0.4260000000E+08     0.1000000000E+03
         0.4270000000E+08     0.1000000000E+03
         0.4280000000E+08     0.1000000000E+03
         0.4290000000E+08     0.1000000000E+03
         0.4290000000E+08     0.1000000000E+03
         0.4300000000E+08     0.1000000000E+03
         0.4310000000E+08     0.1000000000E+03
         0.4320000000E+08     0.1000000000E+03
         0.4330000000E+08     0.1000000000E+03
         0.4340000000E+08     0.1000000000E+03
         0.4350000000E+08     0.1000000000E+03
         0.4350000000E+08     0.1000000000E+03
         0.4360000000E+08     0.1000000000E+03
         0.4370000000E+08     0.1000000000E+03
         0.4380000000E+08     0.1000000000E+03
         0.4390000000E+08     0.1000000000E+03
         0.4400000000E+08     0.1000000000E+03
         0.4410000000E+08     0.1000000000E+03
         0.4420000000E+08     0.1000000000E+03
         0.4420000000E+08     0.1000000000E+03
         0.4430000000E+08     0.1000000000E+03
         0.4440000000E+08     0.1000000000E+03
         0.4450000000E+08     0.1000000000E+03
         0.4460000000E+08     0.1000000000E+03
         0.4470000000E+08     0.1000000000E+03
         0.4480000000E+08     0.1000000000E+03
         0.4480000000E+08     0.1000000000E+03
         0.4490000000E+08     0.1000000000E+03
         0.4500000000E+08     0.1000000000E+03
         0.4510000000E+08     0.1000000000E+03
         0.4520000000E+08     0.1000000000E+03
         0.4530000000E+08     0.1000000000E+03
         0.4540000000E+08     0.1000000000E+03
         0.4540000000E+08     0.1000000000E+03
         0.4550000000E+08     0.1000000000E+03
         0.4560000000E+08     0.1000000000E+03
         0.4570000000E+08     0.1000000000E+03
         0.4580000000E+08     0.1000000000E+03
         0.4590000000E+08     0.1000000000E+03
         0.4600000000E+08     0.1000000000E+03
         0.4610000000E+08     0.1000000000E+03
         0.4610000000E+08     0.1000000000E+03
         0.4620000000E+08     0.1000000000E+03
         0.4630000000E+08     0.1000000000E+03
         0.4640000000E+08     0.1000000000E+03
         0.4650000000E+08     0.1000000000E+03
         0.4660000000E+08     0.1000000000E+03
         0.4670000000E+08     0.1000000000E+03
         0.4670000000E+08     0.1000000000E+03
         0.4680000000E+08     0.1000000000E+03
         0.4690000000E+08     0.1000000000E+03
         0.4700000000E+08     0.1000000000E+03
         0.4710000000E+08     0.1000000000E+03
         0.4720000000E+08     0.1000000000E+03
         0.4730000000E+08     0.1000000000E+03
         0.4730000000E+08     0.1000000000E+03
         0.4740000000E+08     0.1000000000E+03
         0.4750000000E+08     0.1000000000E+03
         0.4760000000E+08     0.1000000000E+03
         0.4770000000E+08     0.1000000000E+03
         0.4780000000E+08     0.1000000000E+03
         0.4790000000E+08     0.1000000000E+03
         0.4800000000E+08     0.1000000000E+03
         0.4800000000E+08     0.1000000000E+03
         0.4810000000E+08     0.1000000000E+03
         0.4820000000E+08     0.1000000000E+03
         0.4830000000E+08     0.1000000000E+03
         0.4840000000E+08     0.1000000000E+03
         0.4850000000E+08     0.1000000000E+03
         0.4860000000E+08     0.1000000000E+03
         0.4860000000E+08     0.1000000000E+03
         0.4870000000E+08     0.1000000000E+03
         0.4880000000E+08     0.1000000000E+03
         0.4890000000E+08     0.1000000000E+03
         0.4900000000E+08     0.1000000000E+03
         0.4910000000E+08     0.1000000000E+03
         0.4920000000E+08     0.1000000000E+03
         0.4920000000E+08     0.1000000000E+03
         0.4930000000E+08     0.1000000000E+03
         0.4940000000E+08     0.1000000000E+03
         0.4950000000E+08     0.1000000000E+03
         0.4960000000E+08     0.1000000000E+03
         0.4970000000E+08     0.1000000000E+03
         0.4980000000E+08     0.1000000000E+03
         0.4990000000E+08     0.1000000000E+03
         0.4990000000E+08     0.1000000000E+03
         0.5000000000E+08     0.1000000000E+03
         0.5010000000E+08     0.1000000000E+03
         0.5020000000E+08     0.1000000000E+03
         0.5030000000E+08     0.1000000000E+03
         0.5040000000E+08     0.1000000000E+03
         0.5050000000E+08     0.1000000000E+03
         0.5050000000E+08     0.1000000000E+03
         0.5060000000E+08     0.1000000000E+03
         0.5070000000E+08     0.1000000000E+03
         0.5080000000E+08     0.1000000000E+03
         0.5090000000E+08     0.1000000000E+03
         0.5100000000E+08     0.1000000000E+03
         0.5110000000E+08     0.1000000000E+03
         0.5110000000E+08     0.1000000000E+03
         0.5120000000E+08     0.1000000000E+03
         0.5130000000E+08     0.1000000000E+03
         0.5140000000E+08     0.1000000000E+03
         0.5150000000E+08     0.1000000000E+03
         0.5160000000E+08     0.1000000000E+03
         0.5170000000E+08     0.1000000000E+03
         0.5180000000E+08     0.1000000000E+03
         0.5180000000E+08     0.1000000000E+03
         0.5190000000E+08     0.1000000000E+03
         0.5200000000E+08     0.1000000000E+03
         0.5210000000E+08     0.1000000000E+03
         0.5220000000E+08     0.1000000000E+03
         0.5230000000E+08     0.1000000000E+03
         0.5240000000E+08     0.1000000000E+03
         0.5240000000E+08     0.1000000000E+03
         0.5250000000E+08     0.1000000000E+03
         0.5260000000E+08     0.1000000000E+03
         0.5270000000E+08     0.1000000000E+03
         0.5280000000E+08     0.1000000000E+03
         0.5290000000E+08     0.1000000000E+03
         0.5300000000E+08     0.1000000000E+03
         0.5310000000E+08     0.1000000000E+03
         0.5310000000E+08     0.1000000000E+03
         0.5320000000E+08     0.1000000000E+03
         0.5330000000E+08     0.1000000000E+03
         0.5340000000E+08     0.1000000000E+03
         0.5350000000E+08     0.1000000000E+03
         0.5360000000E+08     0.1000000000E+03
         0.5370000000E+08     0.1000000000E+03
         0.5370000000E+08     0.1000000000E+03
         0.5380000000E+08     0.1000000000E+03
         0.5390000000E+08     0.1000000000E+03
         0.5400000000E+08     0.1000000000E+03
         0.5410000000E+08     0.1000000000E+03
         0.5420000000E+08     0.1000000000E+03
         0.5430000000E+08     0.1000000000E+03
         0.5430000000E+08     0.1000000000E+03
         0.5440000000E+08     0.1000000000E+03
         0.5450000000E+08     0.1000000000E+03
         0.5460000000E+08     0.1000000000E+03
         0.5470000000E+08     0.1000000000E+03
         0.5480000000E+08     0.1000000000E+03
         0.5490000000E+08     0.1000000000E+03
         0.5500000000E+08     0.1000000000E+03
         0.5500000000E+08     0.1000000000E+03
         0.5510000000E+08     0.1000000000E+03
         0.5520000000E+08     0.1000000000E+03
         0.5530000000E+08     0.1000000000E+03
         0.5540000000E+08     0.1000000000E+03
         0.5550000000E+08     0.1000000000E+03
         0.5560000000E+08     0.1000000000E+03
         0.5560000000E+08     0.1000000000E+03
         0.5570000000E+08     0.1000000000E+03
         0.5580000000E+08     0.1000000000E+03
         0.5590000000E+08     0.1000000000E+03
         0.5600000000E+08     0.1000000000E+03
         0.5610000000E+08     0.1000000000E+03
         0.5620000000E+08     0.1000000000E+03
         0.5620000000E+08     0.1000000000E+03
         0.5630000000E+08     0.1000000000E+03
         0.5640000000E+08     0.1000000000E+03
         0.5650000000E+08     0.1000000000E+03
         0.5660000000E+08     0.1000000000E+03
         0.5670000000E+08     0.1000000000E+03
         0.5680000000E+08     0.1000000000E+03
         0.5690000000E+08     0.1000000000E+03
         0.5690000000E+08     0.1000000000E+03
         0.5700000000E+08     0.1000000000E+03
         0.5710000000E+08     0.1000000000E+03
         0.5720000000E+08     0.1000000000E+03
         0.5730000000E+08     0.1000000000E+03
         0.5740000000E+08     0.1000000000E+03
         0.5750000000E+08     0.1000000000E+03
         0.5750000000E+08     0.1000000000E+03
         0.5760000000E+08     0.1000000000E+03
         0.5770000000E+08     0.1000000000E+03
         0.5780000000E+08     0.1000000000E+03
         0.5790000000E+08     0.1000000000E+03
         0.5800000000E+08     0.1000000000E+03
         0.5810000000E+08     0.1000000000E+03
         0.5810000000E+08     0.1000000000E+03
         0.5820000000E+08     0.1000000000E+03
         0.5830000000E+08     0.1000000000E+03
         0.5840000000E+08     0.1000000000E+03
         0.5850000000E+08     0.1000000000E+03
         0.5860000000E+08     0.1000000000E+03
         0.5870000000E+08     0.1000000000E+03
         0.5880000000E+08     0.1000000000E+03
         0.5880000000E+08     0.1000000000E+03
         0.5890000000E+08     0.1000000000E+03
         0.5900000000E+08     0.1000000000E+03
         0.5910000000E+08     0.1000000000E+03
         0.5920000000E+08     0.1000000000E+03
         0.5930000000E+08     0.1000000000E+03
         0.5940000000E+08     0.1000000000E+03
         0.5940000000E+08     0.1000000000E+03
         0.5950000000E+08     0.1000000000E+03
         0.5960000000E+08     0.1000000000E+03
         0.5970000000E+08     0.1000000000E+03
         0.5980000000E+08     0.1000000000E+03
         0.5990000000E+08     0.1000000000E+03
         0.6000000000E+08     0.1000000000E+03
         0.6000000000E+08     0.1000000000E+03
         0.6010000000E+08     0.1000000000E+03
         0.6020000000E+08     0.1000000000E+03
         0.6030000000E+08     0.1000000000E+03
         0.6040000000E+08     0.1000000000E+03
         0.6050000000E+08     0.1000000000E+03
         0.6060000000E+08     0.1000000000E+03
         0.6070000000E+08     0.1000000000E+03
         0.6070000000E+08     0.1000000000E+03
         0.6080000000E+08     0.1000000000E+03
         0.6090000000E+08     0.1000000000E+03
         0.6100000000E+08     0.1000000000E+03
         0.6110000000E+08     0.1000000000E+03
         0.6120000000E+08     0.1000000000E+03
         0.6130000000E+08     0.1000000000E+03
         0.6130000000E+08     0.1000000000E+03
         0.6140000000E+08     0.1000000000E+03
         0.6150000000E+08     0.1000000000E+03
         0.6160000000E+08     0.1000000000E+03
         0.6170000000E+08     0.1000000000E+03
         0.6180000000E+08     0.1000000000E+03
         0.6190000000E+08     0.1000000000E+03
         0.6190000000E+08     0.1000000000E+03
         0.6200000000E+08     0.1000000000E+03
         0.6210000000E+08     0.1000000000E+03
         0.6220000000E+08     0.1000000000E+03
         0.6230000000E+08     0.1000000000E+03
         0.6240000000E+08     0.1000000000E+03
         0.6250000000E+08     0.1000000000E+03
         0.6260000000E+08     0.1000000000E+03
         0.6260000000E+08     0.1000000000E+03
         0.6270000000E+08     0.1000000000E+03
         0.6280000000E+08     0.1000000000E+03
         0.6290000000E+08     0.1000000000E+03
         0.6300000000E+08     0.1000000000E+03
         0.6310000000E+08     0.1000000000E+03
         0.6320000000E+08     0.1000000000E+03
         0.6320000000E+08     0.1000000000E+03
         0.6330000000E+08     0.1000000000E+03
         0.6340000000E+08     0.1000000000E+03
         0.6350000000E+08     0.1000000000E+03
         0.6360000000E+08     0.1000000000E+03
         0.6370000000E+08     0.1000000000E+03
         0.6380000000E+08     0.1000000000E+03
         0.6390000000E+08     0.1000000000E+03
         0.6390000000E+08     0.1000000000E+03
         0.6400000000E+08     0.1000000000E+03
         0.6410000000E+08     0.1000000000E+03
         0.6420000000E+08     0.1000000000E+03
         0.6430000000E+08     0.1000000000E+03
         0.6440000000E+08     0.1000000000E+03
         0.6450000000E+08     0.1000000000E+03
         0.6450000000E+08     0.1000000000E+03
         0.6460000000E+08     0.1000000000E+03
         0.6470000000E+08     0.1000000000E+03
         0.6480000000E+08     0.1000000000E+03
         0.6490000000E+08     0.1000000000E+03
         0.6500000000E+08     0.1000000000E+03
         0.6510000000E+08     0.1000000000E+03
         0.6510000000E+08     0.1000000000E+03
         0.6520000000E+08     0.1000000000E+03
         0.6530000000E+08     0.1000000000E+03
         0.6540000000E+08     0.1000000000E+03
         0.6550000000E+08     0.1000000000E+03
         0.6560000000E+08     0.1000000000E+03
         0.6570000000E+08     0.1000000000E+03
         0.6580000000E+08     0.1000000000E+03
         0.6590000000E+08     0.1000000000E+03
         0.6600000000E+08     0.1000000000E+03
         0.6610000000E+08     0.1000000000E+03
         0.6610000000E+08     0.1000000000E+03
         0.6620000000E+08     0.1000000000E+03
         0.6630000000E+08     0.1000000000E+03
         0.6640000000E+08     0.1000000000E+03
         0.6650000000E+08     0.1000000000E+03
         0.6660000000E+08     0.1000000000E+03
         0.6670000000E+08     0.1000000000E+03
         0.6670000000E+08     0.1000000000E+03
         0.6680000000E+08     0.1000000000E+03
         0.6690000000E+08     0.1000000000E+03
         0.6700000000E+08     0.1000000000E+03
         0.6710000000E+08     0.1000000000E+03
         0.6720000000E+08     0.1000000000E+03
         0.6730000000E+08     0.1000000000E+03
         0.6730000000E+08     0.1000000000E+03
         0.6740000000E+08     0.1000000000E+03
         0.6750000000E+08     0.1000000000E+03
         0.6760000000E+08     0.1000000000E+03
         0.6770000000E+08     0.1000000000E+03
         0.6780000000E+08     0.1000000000E+03
         0.6790000000E+08     0.1000000000E+03
         0.6800000000E+08     0.1000000000E+03
         0.6810000000E+08     0.1000000000E+03
         0.6820000000E+08     0.1000000000E+03
         0.6830000000E+08     0.1000000000E+03
         0.6830000000E+08     0.1000000000E+03
         0.6840000000E+08     0.1000000000E+03
         0.6850000000E+08     0.1000000000E+03
         0.6860000000E+08     0.1000000000E+03
         0.6870000000E+08     0.1000000000E+03
         0.6880000000E+08     0.1000000000E+03
         0.6890000000E+08     0.1000000000E+03
         0.6890000000E+08     0.1000000000E+03
         0.6900000000E+08     0.1000000000E+03
         0.6910000000E+08     0.1000000000E+03
         0.6920000000E+08     0.1000000000E+03
         0.6930000000E+08     0.1000000000E+03
         0.6940000000E+08     0.1000000000E+03
         0.6950000000E+08     0.1000000000E+03
         0.6950000000E+08     0.1000000000E+03
         0.6960000000E+08     0.1000000000E+03
         0.6970000000E+08     0.1000000000E+03
         0.6980000000E+08     0.1000000000E+03
         0.6990000000E+08     0.1000000000E+03
         0.7000000000E+08     0.1000000000E+03
         0.7010000000E+08     0.1000000000E+03
         0.7020000000E+08     0.1000000000E+03
         0.7030000000E+08     0.1000000000E+03
         0.7040000000E+08     0.1000000000E+03
         0.7050000000E+08     0.1000000000E+03
         0.7050000000E+08     0.1000000000E+03
         0.7060000000E+08     0.1000000000E+03
         0.7070000000E+08     0.1000000000E+03
         0.7080000000E+08     0.1000000000E+03
         0.7090000000E+08     0.1000000000E+03
         0.7100000000E+08     0.1000000000E+03
         0.7110000000E+08     0.1000000000E+03
         0.7110000000E+08     0.1000000000E+03
         0.7120000000E+08     0.1000000000E+03
         0.7130000000E+08     0.1000000000E+03
         0.7140000000E+08     0.1000000000E+03
         0.7150000000E+08     0.1000000000E+03
         0.7160000000E+08     0.1000000000E+03
         0.7170000000E+08     0.1000000000E+03
         0.7170000000E+08     0.1000000000E+03
         0.7180000000E+08     0.1000000000E+03
         0.7190000000E+08     0.1000000000E+03
         0.7200000000E+08     0.1000000000E+03
         0.7210000000E+08     0.1000000000E+03
         0.7220000000E+08     0.1000000000E+03
         0.7230000000E+08     0.1000000000E+03
         0.7240000000E+08     0.1000000000E+03
         0.7250000000E+08     0.1000000000E+03
         0.7260000000E+08     0.1000000000E+03
         0.7270000000E+08     0.1000000000E+03
         0.7270000000E+08     0.1000000000E+03
         0.7280000000E+08     0.1000000000E+03
         0.7290000000E+08     0.1000000000E+03
         0.7300000000E+08     0.1000000000E+03
         0.7310000000E+08     0.1000000000E+03
         0.7320000000E+08     0.1000000000E+03
         0.7330000000E+08     0.1000000000E+03
         0.7330000000E+08     0.1000000000E+03
         0.7340000000E+08     0.1000000000E+03
         0.7350000000E+08     0.1000000000E+03
         0.7360000000E+08     0.1000000000E+03
         0.7370000000E+08     0.1000000000E+03
         0.7380000000E+08     0.1000000000E+03
         0.7390000000E+08     0.1000000000E+03
         0.7390000000E+08     0.1000000000E+03
         0.7400000000E+08     0.1000000000E+03
         0.7410000000E+08     0.1000000000E+03
         0.7420000000E+08     0.1000000000E+03
         0.7430000000E+08     0.1000000000E+03
         0.7440000000E+08     0.1000000000E+03
         0.7450000000E+08     0.1000000000E+03
         0.7460000000E+08     0.1000000000E+03
         0.7470000000E+08     0.1000000000E+03
         0.7480000000E+08     0.1000000000E+03
         0.7490000000E+08     0.1000000000E+03
         0.7490000000E+08     0.1000000000E+03
         0.7500000000E+08     0.1000000000E+03
         0.7510000000E+08     0.1000000000E+03
         0.7520000000E+08     0.1000000000E+03
         0.7530000000E+08     0.1000000000E+03
         0.7540000000E+08     0.1000000000E+03
         0.7550000000E+08     0.1000000000E+03
         0.7550000000E+08     0.1000000000E+03
         0.7560000000E+08     0.1000000000E+03
         0.7570000000E+08     0.1000000000E+03
         0.7580000000E+08     0.1000000000E+03
         0.7590000000E+08     0.1000000000E+03
         0.7600000000E+08     0.1000000000E+03
         0.7610000000E+08     0.1000000000E+03
         0.7610000000E+08     0.1000000000E+03
         0.7620000000E+08     0.1000000000E+03
         0.7630000000E+08     0.1000000000E+03
         0.7640000000E+08     0.1000000000E+03
         0.7650000000E+08     0.1000000000E+03
         0.7660000000E+08     0.1000000000E+03
         0.7670000000E+08     0.1000000000E+03
         0.7680000000E+08     0.1000000000E+03
         0.7690000000E+08     0.1000000000E+03
         0.7700000000E+08     0.1000000000E+03
         0.7710000000E+08     0.1000000000E+03
         0.7710000000E+08     0.1000000000E+03
         0.7720000000E+08     0.1000000000E+03
         0.7730000000E+08     0.1000000000E+03
         0.7740000000E+08     0.1000000000E+03
         0.7750000000E+08     0.1000000000E+03
         0.7760000000E+08     0.1000000000E+03
         0.7770000000E+08     0.1000000000E+03
         0.7770000000E+08     0.1000000000E+03
         0.7780000000E+08     0.1000000000E+03
         0.7790000000E+08     0.1000000000E+03
         0.7800000000E+08     0.1000000000E+03
         0.7810000000E+08     0.1000000000E+03
         0.7820000000E+08     0.1000000000E+03
         0.7830000000E+08     0.1000000000E+03
         0.7830000000E+08     0.1000000000E+03
         0.7840000000E+08     0.1000000000E+03
         0.7850000000E+08     0.1000000000E+03
         0.7860000000E+08     0.1000000000E+03
         0.7870000000E+08     0.1000000000E+03
         0.7880000000E+08     0.1000000000E+03
         0.7890000000E+08     0.1000000000E+03
         0.7900000000E+08     0.1000000000E+03
         0.7910000000E+08     0.1000000000E+03
         0.7920000000E+08     0.1000000000E+03
         0.7930000000E+08     0.1000000000E+03
         0.7930000000E+08     0.1000000000E+03
         0.7940000000E+08     0.1000000000E+03
         0.7950000000E+08     0.1000000000E+03
         0.7960000000E+08     0.1000000000E+03
         0.7970000000E+08     0.1000000000E+03
         0.7980000000E+08     0.1000000000E+03
         0.7990000000E+08     0.1000000000E+03
         0.7990000000E+08     0.1000000000E+03
         0.8000000000E+08     0.1000000000E+03
         0.8010000000E+08     0.1000000000E+03
         0.8020000000E+08     0.1000000000E+03
         0.8030000000E+08     0.1000000000E+03
         0.8040000000E+08     0.1000000000E+03
         0.8050000000E+08     0.1000000000E+03
         0.8050000000E+08     0.1000000000E+03
         0.8060000000E+08     0.1000000000E+03
         0.8070000000E+08     0.1000000000E+03
         0.8080000000E+08     0.1000000000E+03
         0.8090000000E+08     0.1000000000E+03
         0.8100000000E+08     0.1000000000E+03
         0.8110000000E+08     0.1000000000E+03
         0.8120000000E+08     0.1000000000E+03
         0.8130000000E+08     0.1000000000E+03
         0.8140000000E+08     0.1000000000E+03
         0.8150000000E+08     0.1000000000E+03
         0.8150000000E+08     0.1000000000E+03
         0.8160000000E+08     0.1000000000E+03
         0.8170000000E+08     0.1000000000E+03
         0.8180000000E+08     0.1000000000E+03
         0.8190000000E+08     0.1000000000E+03
         0.8200000000E+08     0.1000000000E+03
         0.8210000000E+08     0.1000000000E+03
         0.8210000000E+08     0.1000000000E+03
         0.8220000000E+08     0.1000000000E+03
         0.8230000000E+08     0.1000000000E+03
         0.8240000000E+08     0.1000000000E+03
         0.8250000000E+08     0.1000000000E+03
         0.8260000000E+08     0.1000000000E+03
         0.8270000000E+08     0.1000000000E+03
         0.8270000000E+08     0.1000000000E+03
         0.8280000000E+08     0.1000000000E+03
         0.8290000000E+08     0.1000000000E+03
         0.8300000000E+08     0.1000000000E+03
         0.8310000000E+08     0.1000000000E+03
         0.8320000000E+08     0.1000000000E+03
         0.8330000000E+08     0.1000000000E+03
         0.8340000000E+08     0.1000000000E+03
         0.8350000000E+08     0.1000000000E+03
         0.8360000000E+08     0.1000000000E+03
         0.8370000000E+08     0.1000000000E+03
         0.8370000000E+08     0.1000000000E+03
         0.8380000000E+08     0.1000000000E+03
         0.8390000000E+08     0.1000000000E+03
         0.8400000000E+08     0.1000000000E+03
         0.8410000000E+08     0.1000000000E+03
         0.8420000000E+08     0.1000000000E+03
         0.8430000000E+08     0.1000000000E+03
         0.8430000000E+08     0.1000000000E+03
         0.8440000000E+08     0.1000000000E+03
         0.8450000000E+08     0.1000000000E+03
         0.8460000000E+08     0.1000000000E+03
         0.8470000000E+08     0.1000000000E+03
         0.8480000000E+08     0.1000000000E+03
         0.8490000000E+08     0.1000000000E+03
         0.8490000000E+08     0.1000000000E+03
         0.8500000000E+08     0.1000000000E+03
         0.8510000000E+08     0.1000000000E+03
         0.8520000000E+08     0.1000000000E+03
         0.8530000000E+08     0.1000000000E+03
         0.8540000000E+08     0.1000000000E+03
         0.8550000000E+08     0.1000000000E+03
         0.8560000000E+08     0.1000000000E+03
         0.8570000000E+08     0.1000000000E+03
         0.8580000000E+08     0.1000000000E+03
         0.8590000000E+08     0.1000000000E+03
         0.8590000000E+08     0.1000000000E+03
         0.8600000000E+08     0.1000000000E+03
         0.8610000000E+08     0.1000000000E+03
         0.8620000000E+08     0.1000000000E+03
         0.8630000000E+08     0.1000000000E+03
         0.8640000000E+08     0.1000000000E+03
         0.8650000000E+08     0.1000000000E+03
         0.8650000000E+08     0.1000000000E+03
         0.8660000000E+08     0.1000000000E+03
         0.8670000000E+08     0.1000000000E+03
         0.8680000000E+08     0.1000000000E+03
         0.8690000000E+08     0.1000000000E+03
         0.8700000000E+08     0.1000000000E+03
         0.8710000000E+08     0.1000000000E+03
         0.8710000000E+08     0.1000000000E+03
         0.8720000000E+08     0.1000000000E+03
         0.8730000000E+08     0.1000000000E+03
         0.8740000000E+08     0.1000000000E+03
         0.8750000000E+08     0.1000000000E+03
         0.8760000000E+08     0.1000000000E+03
         0.8770000000E+08     0.1000000000E+03
         0.8780000000E+08     0.1000000000E+03
         0.8790000000E+08     0.1000000000E+03
         0.8800000000E+08     0.1000000000E+03
         0.8810000000E+08     0.1000000000E+03
         0.8810000000E+08     0.1000000000E+03
         0.8820000000E+08     0.1000000000E+03
         0.8830000000E+08     0.1000000000E+03
         0.8840000000E+08     0.1000000000E+03
         0.8850000000E+08     0.1000000000E+03
         0.8860000000E+08     0.1000000000E+03
         0.8870000000E+08     0.1000000000E+03
         0.8870000000E+08     0.1000000000E+03
         0.8880000000E+08     0.1000000000E+03
         0.8890000000E+08     0.1000000000E+03
         0.8900000000E+08     0.1000000000E+03
         0.8910000000E+08     0.1000000000E+03
         0.8920000000E+08     0.1000000000E+03
         0.8930000000E+08     0.1000000000E+03
         0.8930000000E+08     0.1000000000E+03
         0.8940000000E+08     0.1000000000E+03
         0.8950000000E+08     0.1000000000E+03
         0.8960000000E+08     0.1000000000E+03
         0.8970000000E+08     0.1000000000E+03
         0.8980000000E+08     0.1000000000E+03
         0.8990000000E+08     0.1000000000E+03
         0.9000000000E+08     0.1000000000E+03
         0.9010000000E+08     0.1000000000E+03
         0.9020000000E+08     0.1000000000E+03
         0.9030000000E+08     0.1000000000E+03
         0.9030000000E+08     0.1000000000E+03
         0.9040000000E+08     0.1000000000E+03
         0.9050000000E+08     0.1000000000E+03
         0.9060000000E+08     0.1000000000E+03
         0.9070000000E+08     0.1000000000E+03
         0.9080000000E+08     0.1000000000E+03
         0.9090000000E+08     0.1000000000E+03
         0.9090000000E+08     0.1000000000E+03
         0.9100000000E+08     0.1000000000E+03
         0.9110000000E+08     0.1000000000E+03
         0.9120000000E+08     0.1000000000E+03
         0.9130000000E+08     0.1000000000E+03
         0.9140000000E+08     0.1000000000E+03
         0.9150000000E+08     0.1000000000E+03
         0.9150000000E+08     0.1000000000E+03
         0.9160000000E+08     0.1000000000E+03
         0.9170000000E+08     0.1000000000E+03
         0.9180000000E+08     0.1000000000E+03
         0.9190000000E+08     0.1000000000E+03
         0.9200000000E+08     0.1000000000E+03
         0.9210000000E+08     0.1000000000E+03
         0.9220000000E+08     0.1000000000E+03
         0.9230000000E+08     0.1000000000E+03
         0.9240000000E+08     0.1000000000E+03
         0.9250000000E+08     0.1000000000E+03
         0.9250000000E+08     0.1000000000E+03
         0.9260000000E+08     0.1000000000E+03
         0.9270000000E+08     0.1000000000E+03
         0.9280000000E+08     0.1000000000E+03
         0.9290000000E+08     0.1000000000E+03
         0.9300000000E+08     0.1000000000E+03
         0.9310000000E+08     0.1000000000E+03
         0.9310000000E+08     0.1000000000E+03
         0.9320000000E+08     0.1000000000E+03
         0.9330000000E+08     0.1000000000E+03
         0.9340000000E+08     0.1000000000E+03
         0.9350000000E+08     0.1000000000E+03
         0.9360000000E+08     0.1000000000E+03
         0.9370000000E+08     0.1000000000E+03
         0.9370000000E+08     0.1000000000E+03
         0.9380000000E+08     0.1000000000E+03
         0.9390000000E+08     0.1000000000E+03
         0.9400000000E+08     0.1000000000E+03
         0.9410000000E+08     0.1000000000E+03
         0.9420000000E+08     0.1000000000E+03
         0.9430000000E+08     0.1000000000E+03
         0.9440000000E+08     0.1000000000E+03
         0.9450000000E+08     0.1000000000E+03
         0.9460000000E+08     0.1000000000E+03
         0.9470000000E+08     0.1000000000E+03
         0.9470000000E+08     0.1000000000E+03
         0.9480000000E+08     0.1000000000E+03
         0.9490000000E+08     0.1000000000E+03
         0.9500000000E+08     0.1000000000E+03
         0.9510000000E+08     0.1000000000E+03
         0.9520000000E+08     0.1000000000E+03
         0.9530000000E+08     0.1000000000E+03
         0.9530000000E+08     0.1000000000E+03
         0.9540000000E+08     0.1000000000E+03
         0.9550000000E+08     0.1000000000E+03
         0.9560000000E+08     0.1000000000E+03
         0.9570000000E+08     0.1000000000E+03
         0.9580000000E+08     0.1000000000E+03
         0.9590000000E+08     0.1000000000E+03
         0.9590000000E+08     0.1000000000E+03
         0.9600000000E+08     0.1000000000E+03
         0.9610000000E+08     0.1000000000E+03
         0.9620000000E+08     0.1000000000E+03
         0.9630000000E+08     0.1000000000E+03
         0.9640000000E+08     0.1000000000E+03
         0.9650000000E+08     0.1000000000E+03
         0.9660000000E+08     0.1000000000E+03
         0.9670000000E+08     0.1000000000E+03
         0.9680000000E+08     0.1000000000E+03
         0.9690000000E+08     0.1000000000E+03
         0.9690000000E+08     0.1000000000E+03
         0.9700000000E+08     0.1000000000E+03
         0.9710000000E+08     0.1000000000E+03
         0.9720000000E+08     0.1000000000E+03
         0.9730000000E+08     0.1000000000E+03
         0.9740000000E+08     0.1000000000E+03
         0.9750000000E+08     0.1000000000E+03
         0.9750000000E+08     0.1000000000E+03
         0.9760000000E+08     0.1000000000E+03
         0.9770000000E+08     0.1000000000E+03
         0.9780000000E+08     0.1000000000E+03
         0.9790000000E+08     0.1000000000E+03
         0.9800000000E+08     0.1000000000E+03
         0.9810000000E+08     0.1000000000E+03
         0.9810000000E+08     0.1000000000E+03
         0.9820000000E+08     0.1000000000E+03
         0.9830000000E+08     0.1000000000E+03
         0.9840000000E+08     0.1000000000E+03
         0.9850000000E+08     0.1000000000E+03
         0.9860000000E+08     0.1000000000E+03
         0.9870000000E+08     0.1000000000E+03
         0.9880000000E+08     0.1000000000E+03
         0.9890000000E+08     0.1000000000E+03
         0.9900000000E+08     0.1000000000E+03
         0.9910000000E+08     0.1000000000E+03
         0.9910000000E+08     0.1000000000E+03
         0.9920000000E+08     0.1000000000E+03
         0.9930000000E+08     0.1000000000E+03
         0.9940000000E+08     0.1000000000E+03
         0.9950000000E+08     0.1000000000E+03
         0.9960000000E+08     0.1000000000E+03
         0.9970000000E+08     0.1000000000E+03
         0.9970000000E+08     0.1000000000E+03
         0.9980000000E+08     0.1000000000E+03
         0.9990000000E+08     0.1000000000E+03
         0.1000000000E+09     0.1000000000E+03
         0.1001000000E+09     0.1000000000E+03
         0.1002000000E+09     0.1000000000E+03
         0.1003000000E+09     0.1000000000E+03
         0.1003000000E+09     0.1000000000E+03
         0.1004000000E+09     0.1000000000E+03
         0.1005000000E+09     0.1000000000E+03
         0.1006000000E+09     0.1000000000E+03
         0.1007000000E+09     0.1000000000E+03
         0.1008000000E+09     0.1000000000E+03
         0.1009000000E+09     0.1000000000E+03
         0.1010000000E+09     0.1000000000E+03
         0.1011000000E+09     0.1000000000E+03
         0.1012000000E+09     0.1000000000E+03
         0.1013000000E+09     0.1000000000E+03
         0.1013000000E+09     0.1000000000E+03
         0.1014000000E+09     0.1000000000E+03
         0.1015000000E+09     0.1000000000E+03
         0.1016000000E+09     0.1000000000E+03
         0.1017000000E+09     0.1000000000E+03
         0.1018000000E+09     0.1000000000E+03
         0.1019000000E+09     0.1000000000E+03
         0.1019000000E+09     0.1000000000E+03
         0.1020000000E+09     0.1000000000E+03
         0.1021000000E+09     0.1000000000E+03
         0.1022000000E+09     0.1000000000E+03
         0.1023000000E+09     0.1000000000E+03
         0.1024000000E+09     0.1000000000E+03
         0.1025000000E+09     0.1000000000E+03
         0.1025000000E+09     0.1000000000E+03
         0.1026000000E+09     0.1000000000E+03
         0.1027000000E+09     0.1000000000E+03
         0.1028000000E+09     0.1000000000E+03
         0.1029000000E+09     0.1000000000E+03
         0.1030000000E+09     0.1000000000E+03
         0.1031000000E+09     0.1000000000E+03
         0.1032000000E+09     0.1000000000E+03
         0.1033000000E+09     0.1000000000E+03
         0.1034000000E+09     0.1000000000E+03
         0.1035000000E+09     0.1000000000E+03
         0.1035000000E+09     0.1000000000E+03
         0.1036000000E+09     0.1000000000E+03
         0.1037000000E+09     0.1000000000E+03
         0.1038000000E+09     0.1000000000E+03
         0.1039000000E+09     0.1000000000E+03
         0.1040000000E+09     0.1000000000E+03
         0.1041000000E+09     0.1000000000E+03
         0.1041000000E+09     0.1000000000E+03
         0.1042000000E+09     0.1000000000E+03
         0.1043000000E+09     0.1000000000E+03
         0.1044000000E+09     0.1000000000E+03
         0.1045000000E+09     0.1000000000E+03
         0.1046000000E+09     0.1000000000E+03
         0.1047000000E+09     0.1000000000E+03
         0.1047000000E+09     0.1000000000E+03
         0.1048000000E+09     0.1000000000E+03
         0.1049000000E+09     0.1000000000E+03
         0.1050000000E+09     0.1000000000E+03
         0.1051000000E+09     0.1000000000E+03
         0.1052000000E+09     0.1000000000E+03
         0.1053000000E+09     0.1000000000E+03
         0.1054000000E+09     0.1000000000E+03
         0.1055000000E+09     0.1000000000E+03
         0.1056000000E+09     0.1000000000E+03
         0.1057000000E+09     0.1000000000E+03
         0.1057000000E+09     0.1000000000E+03
         0.1058000000E+09     0.1000000000E+03
         0.1059000000E+09     0.1000000000E+03
         0.1060000000E+09     0.1000000000E+03
         0.1061000000E+09     0.1000000000E+03
         0.1062000000E+09     0.1000000000E+03
         0.1063000000E+09     0.1000000000E+03
         0.1063000000E+09     0.1000000000E+03
         0.1064000000E+09     0.1000000000E+03
         0.1065000000E+09     0.1000000000E+03
         0.1066000000E+09     0.1000000000E+03
         0.1067000000E+09     0.1000000000E+03
         0.1068000000E+09     0.1000000000E+03
         0.1069000000E+09     0.1000000000E+03
         0.1069000000E+09     0.1000000000E+03
         0.1070000000E+09     0.1000000000E+03
         0.1071000000E+09     0.1000000000E+03
         0.1072000000E+09     0.1000000000E+03
         0.1073000000E+09     0.1000000000E+03
         0.1074000000E+09     0.1000000000E+03
         0.1075000000E+09     0.1000000000E+03
         0.1076000000E+09     0.1000000000E+03
         0.1077000000E+09     0.1000000000E+03
         0.1078000000E+09     0.1000000000E+03
         0.1079000000E+09     0.1000000000E+03
         0.1079000000E+09     0.1000000000E+03
         0.1080000000E+09     0.1000000000E+03
         0.1081000000E+09     0.1000000000E+03
         0.1082000000E+09     0.1000000000E+03
         0.1083000000E+09     0.1000000000E+03
         0.1084000000E+09     0.1000000000E+03
         0.1085000000E+09     0.1000000000E+03
         0.1085000000E+09     0.1000000000E+03
         0.1086000000E+09     0.1000000000E+03
         0.1087000000E+09     0.1000000000E+03
         0.1088000000E+09     0.1000000000E+03
         0.1089000000E+09     0.1000000000E+03
         0.1090000000E+09     0.1000000000E+03
         0.1091000000E+09     0.1000000000E+03
         0.1091000000E+09     0.1000000000E+03
         0.1092000000E+09     0.1000000000E+03
         0.1093000000E+09     0.1000000000E+03
         0.1094000000E+09     0.1000000000E+03
         0.1095000000E+09     0.1000000000E+03
         0.1096000000E+09     0.1000000000E+03
         0.1097000000E+09     0.1000000000E+03
         0.1098000000E+09     0.1000000000E+03
         0.1099000000E+09     0.1000000000E+03
         0.1100000000E+09     0.1000000000E+03
         0.1101000000E+09     0.1000000000E+03
         0.1101000000E+09     0.1000000000E+03
         0.1102000000E+09     0.1000000000E+03
         0.1103000000E+09     0.1000000000E+03
         0.1104000000E+09     0.1000000000E+03
         0.1105000000E+09     0.1000000000E+03
         0.1106000000E+09     0.1000000000E+03
         0.1107000000E+09     0.1000000000E+03
         0.1107000000E+09     0.1000000000E+03
         0.1108000000E+09     0.1000000000E+03
         0.1109000000E+09     0.1000000000E+03
         0.1110000000E+09     0.1000000000E+03
         0.1111000000E+09     0.1000000000E+03
         0.1112000000E+09     0.1000000000E+03
         0.1113000000E+09     0.1000000000E+03
         0.1113000000E+09     0.1000000000E+03
         0.1114000000E+09     0.1000000000E+03
         0.1115000000E+09     0.1000000000E+03
         0.1116000000E+09     0.1000000000E+03
         0.1117000000E+09     0.1000000000E+03
         0.1118000000E+09     0.1000000000E+03
         0.1119000000E+09     0.1000000000E+03
         0.1120000000E+09     0.1000000000E+03
         0.1121000000E+09     0.1000000000E+03
         0.1122000000E+09     0.1000000000E+03
         0.1123000000E+09     0.1000000000E+03
         0.1123000000E+09     0.1000000000E+03
         0.1124000000E+09     0.1000000000E+03
         0.1125000000E+09     0.1000000000E+03
         0.1126000000E+09     0.1000000000E+03
         0.1127000000E+09     0.1000000000E+03
         0.1128000000E+09     0.1000000000E+03
         0.1129000000E+09     0.1000000000E+03
         0.1129000000E+09     0.1000000000E+03
         0.1130000000E+09     0.1000000000E+03
         0.1131000000E+09     0.1000000000E+03
         0.1132000000E+09     0.1000000000E+03
         0.1133000000E+09     0.1000000000E+03
         0.1134000000E+09     0.1000000000E+03
         0.1135000000E+09     0.1000000000E+03
         0.1135000000E+09     0.1000000000E+03
         0.1136000000E+09     0.1000000000E+03
         0.1137000000E+09     0.1000000000E+03
         0.1138000000E+09     0.1000000000E+03
         0.1139000000E+09     0.1000000000E+03
         0.1140000000E+09     0.1000000000E+03
         0.1141000000E+09     0.1000000000E+03
         0.1142000000E+09     0.1000000000E+03
         0.1143000000E+09     0.1000000000E+03
         0.1144000000E+09     0.1000000000E+03
         0.1145000000E+09     0.1000000000E+03
         0.1145000000E+09     0.1000000000E+03
         0.1146000000E+09     0.1000000000E+03
         0.1147000000E+09     0.1000000000E+03
         0.1148000000E+09     0.1000000000E+03
         0.1149000000E+09     0.1000000000E+03
         0.1150000000E+09     0.1000000000E+03
         0.1151000000E+09     0.1000000000E+03
         0.1151000000E+09     0.1000000000E+03
         0.1152000000E+09     0.1000000000E+03
         0.1153000000E+09     0.1000000000E+03
         0.1154000000E+09     0.1000000000E+03
         0.1155000000E+09     0.1000000000E+03
         0.1156000000E+09     0.1000000000E+03
         0.1157000000E+09     0.1000000000E+03
         0.1157000000E+09     0.1000000000E+03
         0.1158000000E+09     0.1000000000E+03
         0.1159000000E+09     0.1000000000E+03
         0.1160000000E+09     0.1000000000E+03
         0.1161000000E+09     0.1000000000E+03
         0.1162000000E+09     0.1000000000E+03
         0.1163000000E+09     0.1000000000E+03
         0.1164000000E+09     0.1000000000E+03
         0.1165000000E+09     0.1000000000E+03
         0.1166000000E+09     0.1000000000E+03
         0.1167000000E+09     0.1000000000E+03
         0.1167000000E+09     0.1000000000E+03
         0.1168000000E+09     0.1000000000E+03
         0.1169000000E+09     0.1000000000E+03
         0.1170000000E+09     0.1000000000E+03
         0.1171000000E+09     0.1000000000E+03
         0.1172000000E+09     0.1000000000E+03
         0.1173000000E+09     0.1000000000E+03
         0.1173000000E+09     0.1000000000E+03
         0.1174000000E+09     0.1000000000E+03
         0.1175000000E+09     0.1000000000E+03
         0.1176000000E+09     0.1000000000E+03
         0.1177000000E+09     0.1000000000E+03
         0.1178000000E+09     0.1000000000E+03
         0.1179000000E+09     0.1000000000E+03
         0.1179000000E+09     0.1000000000E+03
         0.1180000000E+09     0.1000000000E+03
         0.1181000000E+09     0.1000000000E+03
         0.1182000000E+09     0.1000000000E+03
         0.1183000000E+09     0.1000000000E+03
         0.1184000000E+09     0.1000000000E+03
         0.1185000000E+09     0.1000000000E+03
         0.1186000000E+09     0.1000000000E+03
         0.1187000000E+09     0.1000000000E+03
         0.1188000000E+09     0.1000000000E+03
         0.1189000000E+09     0.1000000000E+03
         0.1189000000E+09     0.1000000000E+03
         0.1190000000E+09     0.1000000000E+03
         0.1191000000E+09     0.1000000000E+03
         0.1192000000E+09     0.1000000000E+03
         0.1193000000E+09     0.1000000000E+03
         0.1194000000E+09     0.1000000000E+03
         0.1195000000E+09     0.1000000000E+03
         0.1195000000E+09     0.1000000000E+03
         0.1196000000E+09     0.1000000000E+03
         0.1197000000E+09     0.1000000000E+03
         0.1198000000E+09     0.1000000000E+03
         0.1199000000E+09     0.1000000000E+03
         0.1200000000E+09     0.1000000000E+03
         0.1201000000E+09     0.1000000000E+03
         0.1201000000E+09     0.1000000000E+03
         0.1202000000E+09     0.1000000000E+03
         0.1203000000E+09     0.1000000000E+03
         0.1204000000E+09     0.1000000000E+03
         0.1205000000E+09     0.1000000000E+03
         0.1206000000E+09     0.1000000000E+03
         0.1207000000E+09     0.1000000000E+03
         0.1208000000E+09     0.1000000000E+03
         0.1209000000E+09     0.1000000000E+03
         0.1210000000E+09     0.1000000000E+03
         0.1211000000E+09     0.1000000000E+03
         0.1211000000E+09     0.1000000000E+03
         0.1212000000E+09     0.1000000000E+03
         0.1213000000E+09     0.1000000000E+03
         0.1214000000E+09     0.1000000000E+03
         0.1215000000E+09     0.1000000000E+03
         0.1216000000E+09     0.1000000000E+03
         0.1217000000E+09     0.1000000000E+03
         0.1217000000E+09     0.1000000000E+03
         0.1218000000E+09     0.1000000000E+03
         0.1219000000E+09     0.1000000000E+03
         0.1220000000E+09     0.1000000000E+03
         0.1221000000E+09     0.1000000000E+03
         0.1222000000E+09     0.1000000000E+03
         0.1223000000E+09     0.1000000000E+03
         0.1223000000E+09     0.1000000000E+03
         0.1224000000E+09     0.1000000000E+03
         0.1225000000E+09     0.1000000000E+03
         0.1226000000E+09     0.1000000000E+03
         0.1227000000E+09     0.1000000000E+03
         0.1228000000E+09     0.1000000000E+03
         0.1229000000E+09     0.1000000000E+03
         0.1230000000E+09     0.1000000000E+03
         0.1231000000E+09     0.1000000000E+03
         0.1232000000E+09     0.1000000000E+03
         0.1233000000E+09     0.1000000000E+03
         0.1233000000E+09     0.1000000000E+03
         0.1234000000E+09     0.1000000000E+03
         0.1235000000E+09     0.1000000000E+03
         0.1236000000E+09     0.1000000000E+03
         0.1237000000E+09     0.1000000000E+03
         0.1238000000E+09     0.1000000000E+03
         0.1239000000E+09     0.1000000000E+03
         0.1239000000E+09     0.1000000000E+03
         0.1240000000E+09     0.1000000000E+03
         0.1241000000E+09     0.1000000000E+03
         0.1242000000E+09     0.1000000000E+03
         0.1243000000E+09     0.1000000000E+03
         0.1244000000E+09     0.1000000000E+03
         0.1245000000E+09     0.1000000000E+03
         0.1245000000E+09     0.1000000000E+03
         0.1246000000E+09     0.1000000000E+03
         0.1247000000E+09     0.1000000000E+03
         0.1248000000E+09     0.1000000000E+03
         0.1249000000E+09     0.1000000000E+03
         0.1250000000E+09     0.1000000000E+03
         0.1251000000E+09     0.1000000000E+03
         0.1252000000E+09     0.1000000000E+03
         0.1253000000E+09     0.1000000000E+03
         0.1254000000E+09     0.1000000000E+03
         0.1255000000E+09     0.1000000000E+03
         0.1255000000E+09     0.1000000000E+03
         0.1256000000E+09     0.1000000000E+03
         0.1257000000E+09     0.1000000000E+03
         0.1258000000E+09     0.1000000000E+03
         0.1259000000E+09     0.1000000000E+03
         0.1260000000E+09     0.1000000000E+03



            AREAL INFILTRATION RATE
 READING ON UNIT   19 WITH FORMAT: (10F4.0)            

            1           2           3           4           5           6           7           8           9          10
 ........................................................................................................................
   1   1.0000E-10  2.0000E-10   0.000       0.000       0.000       0.000       0.000       0.000       0.000       0.000    
   2   2.0000E-10  1.0000E-10  2.0000E-10   0.000       0.000      8.0000E-10  8.0000E-10  5.0000E-10   0.000       0.000    
   3    0.000      5.0000E-10  1.0000E-10  1.0000E-10  8.0000E-10  8.0000E-10  5.0000E-10  5.0000E-10   0.000       0.000    
   4   8.0000E-10  5.0000E-10  1.0000E-10  1.0000E-10  1.0000E-10  1.0000E-10  1.0000E-10  1.0000E-10  2.0000E-10   0.000    
   5   8.0000E-10  5.0000E-10  1.0000E-10  1.0000E-10  1.0000E-10  1.0000E-10  1.0000E-10  1.0000E-10  1.0000E-10  1.0000E-10
   6   8.0000E-10  5.0000E-10  5.0000E-10  2.0000E-10  2.0000E-10  1.0000E-10  1.0000E-10  1.0000E-10  1.0000E-10  5.0000E-10
   7   8.0000E-10  5.0000E-10  5.0000E-10  2.0000E-10  2.0000E-10  1.0000E-10  1.0000E-10  2.0000E-10  2.0000E-10   0.000    
   8    0.000      5.0000E-10  5.0000E-10  2.0000E-10  2.0000E-10  1.0000E-10  1.0000E-10  2.0000E-10  5.0000E-10   0.000    
   9    0.000      5.0000E-10  5.0000E-10  2.0000E-10  2.0000E-10  1.0000E-10  1.0000E-10  2.0000E-10  5.0000E-10   0.000    
  10    0.000      5.0000E-10  5.0000E-10  2.0000E-10  2.0000E-10  1.0000E-10  1.0000E-10  2.0000E-10  5.0000E-10  8.0000E-10
  11    0.000      1.0000E-10  1.0000E-10  1.0000E-10  1.0000E-10  1.0000E-10  1.0000E-10  2.0000E-10  5.0000E-10   0.000    
  12   1.0000E-10  1.0000E-10  1.0000E-10  1.0000E-10  1.0000E-10  1.0000E-10  1.0000E-10  1.0000E-10  2.0000E-10   0.000    
  13   1.0000E-10  1.0000E-10  2.0000E-10  2.0000E-10  2.0000E-10  2.0000E-10  2.0000E-10  1.0000E-10  1.0000E-10   0.000    
  14    0.000      2.0000E-10  5.0000E-10  5.0000E-10  5.0000E-10  5.0000E-10  5.0000E-10  2.0000E-10  1.0000E-10   0.000    
  15    0.000       0.000      8.0000E-10  8.0000E-10  8.0000E-10  8.0000E-10   0.000       0.000       0.000       0.000    

                  ET RATE =  1.000000E-08

      ET EXTINCTION DEPTH =  0.500000    

 EXTINCTION WATER CONTENT =  0.200000    

EXTINCTION WATER CONTENT FOR CELL AT ROW     1, COLUMN     1 IS LESS THAN RESIDUAL WATER CONTENT-- SETTING EXTINCTION WATER CONTENT EQUAL TO RESIDUAL WATER CONTENT

EXTINCTION WATER CONTENT FOR CELL AT ROW     1, COLUMN     2 IS LESS THAN RESIDUAL WATER CONTENT-- SETTING EXTINCTION WATER CONTENT EQUAL TO RESIDUAL WATER CONTENT

EXTINCTION WATER CONTENT FOR CELL AT ROW     2, COLUMN     1 IS LESS THAN RESIDUAL WATER CONTENT-- SETTING EXTINCTION WATER CONTENT EQUAL TO RESIDUAL WATER CONTENT

EXTINCTION WATER CONTENT FOR CELL AT ROW     2, COLUMN     2 IS LESS THAN RESIDUAL WATER CONTENT-- SETTING EXTINCTION WATER CONTENT EQUAL TO RESIDUAL WATER CONTENT

EXTINCTION WATER CONTENT FOR CELL AT ROW     2, COLUMN     3 IS LESS THAN RESIDUAL WATER CONTENT-- SETTING EXTINCTION WATER CONTENT EQUAL TO RESIDUAL WATER CONTENT

EXTINCTION WATER CONTENT FOR CELL AT ROW     2, COLUMN     6 IS LESS THAN RESIDUAL WATER CONTENT-- SETTING EXTINCTION WATER CONTENT EQUAL TO RESIDUAL WATER CONTENT

EXTINCTION WATER CONTENT FOR CELL AT ROW     2, COLUMN     7 IS LESS THAN RESIDUAL WATER CONTENT-- SETTING EXTINCTION WATER CONTENT EQUAL TO RESIDUAL WATER CONTENT

EXTINCTION WATER CONTENT FOR CELL AT ROW     2, COLUMN     8 IS LESS THAN RESIDUAL WATER CONTENT-- SETTING EXTINCTION WATER CONTENT EQUAL TO RESIDUAL WATER CONTENT

EXTINCTION WATER CONTENT FOR CELL AT ROW     3, COLUMN     2 IS LESS THAN RESIDUAL WATER CONTENT-- SETTING EXTINCTION WATER CONTENT EQUAL TO RESIDUAL WATER CONTENT

EXTINCTION WATER CONTENT FOR CELL AT ROW     3, COLUMN     3 IS LESS THAN RESIDUAL WATER CONTENT-- SETTING EXTINCTION WATER CONTENT EQUAL TO RESIDUAL WATER CONTENT

EXTINCTION WATER CONTENT FOR CELL AT ROW     3, COLUMN     4 IS LESS THAN RESIDUAL WATER CONTENT-- SETTING EXTINCTION WATER CONTENT EQUAL TO RESIDUAL WATER CONTENT

EXTINCTION WATER CONTENT FOR CELL AT ROW     3, COLUMN     5 IS LESS THAN RESIDUAL WATER CONTENT-- SETTING EXTINCTION WATER CONTENT EQUAL TO RESIDUAL WATER CONTENT

EXTINCTION WATER CONTENT FOR CELL AT ROW     3, COLUMN     6 IS LESS THAN RESIDUAL WATER CONTENT-- SETTING EXTINCTION WATER CONTENT EQUAL TO RESIDUAL WATER CONTENT

EXTINCTION WATER CONTENT FOR CELL AT ROW     3, COLUMN     7 IS LESS THAN RESIDUAL WATER CONTENT-- SETTING EXTINCTION WATER CONTENT EQUAL TO RESIDUAL WATER CONTENT

EXTINCTION WATER CONTENT FOR CELL AT ROW     3, COLUMN     8 IS LESS THAN RESIDUAL WATER CONTENT-- SETTING EXTINCTION WATER CONTENT EQUAL TO RESIDUAL WATER CONTENT

EXTINCTION WATER CONTENT FOR CELL AT ROW     4, COLUMN     1 IS LESS THAN RESIDUAL WATER CONTENT-- SETTING EXTINCTION WATER CONTENT EQUAL TO RESIDUAL WATER CONTENT

EXTINCTION WATER CONTENT FOR CELL AT ROW     4, COLUMN     2 IS LESS THAN RESIDUAL WATER CONTENT-- SETTING EXTINCTION WATER CONTENT EQUAL TO RESIDUAL WATER CONTENT

EXTINCTION WATER CONTENT FOR CELL AT ROW     4, COLUMN     3 IS LESS THAN RESIDUAL WATER CONTENT-- SETTING EXTINCTION WATER CONTENT EQUAL TO RESIDUAL WATER CONTENT

EXTINCTION WATER CONTENT FOR CELL AT ROW     4, COLUMN     4 IS LESS THAN RESIDUAL WATER CONTENT-- SETTING EXTINCTION WATER CONTENT EQUAL TO RESIDUAL WATER CONTENT

EXTINCTION WATER CONTENT FOR CELL AT ROW     4, COLUMN     5 IS LESS THAN RESIDUAL WATER CONTENT-- SETTING EXTINCTION WATER CONTENT EQUAL TO RESIDUAL WATER CONTENT

EXTINCTION WATER CONTENT FOR CELL AT ROW     4, COLUMN     6 IS LESS THAN RESIDUAL WATER CONTENT-- SETTING EXTINCTION WATER CONTENT EQUAL TO RESIDUAL WATER CONTENT

EXTINCTION WATER CONTENT FOR CELL AT ROW     4, COLUMN     7 IS LESS THAN RESIDUAL WATER CONTENT-- SETTING EXTINCTION WATER CONTENT EQUAL TO RESIDUAL WATER CONTENT

EXTINCTION WATER CONTENT FOR CELL AT ROW     4, COLUMN     8 IS LESS THAN RESIDUAL WATER CONTENT-- SETTING EXTINCTION WATER CONTENT EQUAL TO RESIDUAL WATER CONTENT

EXTINCTION WATER CONTENT FOR CELL AT ROW     4, COLUMN     9 IS LESS THAN RESIDUAL WATER CONTENT-- SETTING EXTINCTION WATER CONTENT EQUAL TO RESIDUAL WATER CONTENT

EXTINCTION WATER CONTENT FOR CELL AT ROW     5, COLUMN     1 IS LESS THAN RESIDUAL WATER CONTENT-- SETTING EXTINCTION WATER CONTENT EQUAL TO RESIDUAL WATER CONTENT

EXTINCTION WATER CONTENT FOR CELL AT ROW     5, COLUMN     2 IS LESS THAN RESIDUAL WATER CONTENT-- SETTING EXTINCTION WATER CONTENT EQUAL TO RESIDUAL WATER CONTENT

EXTINCTION WATER CONTENT FOR CELL AT ROW     5, COLUMN     3 IS LESS THAN RESIDUAL WATER CONTENT-- SETTING EXTINCTION WATER CONTENT EQUAL TO RESIDUAL WATER CONTENT

EXTINCTION WATER CONTENT FOR CELL AT ROW     5, COLUMN     4 IS LESS THAN RESIDUAL WATER CONTENT-- SETTING EXTINCTION WATER CONTENT EQUAL TO RESIDUAL WATER CONTENT

EXTINCTION WATER CONTENT FOR CELL AT ROW     5, COLUMN     5 IS LESS THAN RESIDUAL WATER CONTENT-- SETTING EXTINCTION WATER CONTENT EQUAL TO RESIDUAL WATER CONTENT

EXTINCTION WATER CONTENT FOR CELL AT ROW     5, COLUMN     6 IS LESS THAN RESIDUAL WATER CONTENT-- SETTING EXTINCTION WATER CONTENT EQUAL TO RESIDUAL WATER CONTENT

EXTINCTION WATER CONTENT FOR CELL AT ROW     5, COLUMN     7 IS LESS THAN RESIDUAL WATER CONTENT-- SETTING EXTINCTION WATER CONTENT EQUAL TO RESIDUAL WATER CONTENT

EXTINCTION WATER CONTENT FOR CELL AT ROW     5, COLUMN     8 IS LESS THAN RESIDUAL WATER CONTENT-- SETTING EXTINCTION WATER CONTENT EQUAL TO RESIDUAL WATER CONTENT

EXTINCTION WATER CONTENT FOR CELL AT ROW     5, COLUMN     9 IS LESS THAN RESIDUAL WATER CONTENT-- SETTING EXTINCTION WATER CONTENT EQUAL TO RESIDUAL WATER CONTENT

EXTINCTION WATER CONTENT FOR CELL AT ROW     5, COLUMN    10 IS LESS THAN RESIDUAL WATER CONTENT-- SETTING EXTINCTION WATER CONTENT EQUAL TO RESIDUAL WATER CONTENT

EXTINCTION WATER CONTENT FOR CELL AT ROW     6, COLUMN     1 IS LESS THAN RESIDUAL WATER CONTENT-- SETTING EXTINCTION WATER CONTENT EQUAL TO RESIDUAL WATER CONTENT

EXTINCTION WATER CONTENT FOR CELL AT ROW     6, COLUMN     2 IS LESS THAN RESIDUAL WATER CONTENT-- SETTING EXTINCTION WATER CONTENT EQUAL TO RESIDUAL WATER CONTENT

EXTINCTION WATER CONTENT FOR CELL AT ROW     6, COLUMN     3 IS LESS THAN RESIDUAL WATER CONTENT-- SETTING EXTINCTION WATER CONTENT EQUAL TO RESIDUAL WATER CONTENT

EXTINCTION WATER CONTENT FOR CELL AT ROW     6, COLUMN     4 IS LESS THAN RESIDUAL WATER CONTENT-- SETTING EXTINCTION WATER CONTENT EQUAL TO RESIDUAL WATER CONTENT

EXTINCTION WATER CONTENT FOR CELL AT ROW     6, COLUMN     5 IS LESS THAN RESIDUAL WATER CONTENT-- SETTING EXTINCTION WATER CONTENT EQUAL TO RESIDUAL WATER CONTENT

EXTINCTION WATER CONTENT FOR CELL AT ROW     6, COLUMN     6 IS LESS THAN RESIDUAL WATER CONTENT-- SETTING EXTINCTION WATER CONTENT EQUAL TO RESIDUAL WATER CONTENT

EXTINCTION WATER CONTENT FOR CELL AT ROW     6, COLUMN     7 IS LESS THAN RESIDUAL WATER CONTENT-- SETTING EXTINCTION WATER CONTENT EQUAL TO RESIDUAL WATER CONTENT

EXTINCTION WATER CONTENT FOR CELL AT ROW     6, COLUMN     8 IS LESS THAN RESIDUAL WATER CONTENT-- SETTING EXTINCTION WATER CONTENT EQUAL TO RESIDUAL WATER CONTENT

EXTINCTION WATER CONTENT FOR CELL AT ROW     6, COLUMN     9 IS LESS THAN RESIDUAL WATER CONTENT-- SETTING EXTINCTION WATER CONTENT EQUAL TO RESIDUAL WATER CONTENT

EXTINCTION WATER CONTENT FOR CELL AT ROW     6, COLUMN    10 IS LESS THAN RESIDUAL WATER CONTENT-- SETTING EXTINCTION WATER CONTENT EQUAL TO RESIDUAL WATER CONTENT

EXTINCTION WATER CONTENT FOR CELL AT ROW     7, COLUMN     1 IS LESS THAN RESIDUAL WATER CONTENT-- SETTING EXTINCTION WATER CONTENT EQUAL TO RESIDUAL WATER CONTENT

EXTINCTION WATER CONTENT FOR CELL AT ROW     7, COLUMN     2 IS LESS THAN RESIDUAL WATER CONTENT-- SETTING EXTINCTION WATER CONTENT EQUAL TO RESIDUAL WATER CONTENT

EXTINCTION WATER CONTENT FOR CELL AT ROW     7, COLUMN     3 IS LESS THAN RESIDUAL WATER CONTENT-- SETTING EXTINCTION WATER CONTENT EQUAL TO RESIDUAL WATER CONTENT

EXTINCTION WATER CONTENT FOR CELL AT ROW     7, COLUMN     4 IS LESS THAN RESIDUAL WATER CONTENT-- SETTING EXTINCTION WATER CONTENT EQUAL TO RESIDUAL WATER CONTENT

EXTINCTION WATER CONTENT FOR CELL AT ROW     7, COLUMN     5 IS LESS THAN RESIDUAL WATER CONTENT-- SETTING EXTINCTION WATER CONTENT EQUAL TO RESIDUAL WATER CONTENT

EXTINCTION WATER CONTENT FOR CELL AT ROW     7, COLUMN     6 IS LESS THAN RESIDUAL WATER CONTENT-- SETTING EXTINCTION WATER CONTENT EQUAL TO RESIDUAL WATER CONTENT

EXTINCTION WATER CONTENT FOR CELL AT ROW     7, COLUMN     7 IS LESS THAN RESIDUAL WATER CONTENT-- SETTING EXTINCTION WATER CONTENT EQUAL TO RESIDUAL WATER CONTENT

EXTINCTION WATER CONTENT FOR CELL AT ROW     7, COLUMN     8 IS LESS THAN RESIDUAL WATER CONTENT-- SETTING EXTINCTION WATER CONTENT EQUAL TO RESIDUAL WATER CONTENT

EXTINCTION WATER CONTENT FOR CELL AT ROW     7, COLUMN     9 IS LESS THAN RESIDUAL WATER CONTENT-- SETTING EXTINCTION WATER CONTENT EQUAL TO RESIDUAL WATER CONTENT

EXTINCTION WATER CONTENT FOR CELL AT ROW     8, COLUMN     2 IS LESS THAN RESIDUAL WATER CONTENT-- SETTING EXTINCTION WATER CONTENT EQUAL TO RESIDUAL WATER CONTENT

EXTINCTION WATER CONTENT FOR CELL AT ROW     8, COLUMN     3 IS LESS THAN RESIDUAL WATER CONTENT-- SETTING EXTINCTION WATER CONTENT EQUAL TO RESIDUAL WATER CONTENT

EXTINCTION WATER CONTENT FOR CELL AT ROW     8, COLUMN     4 IS LESS THAN RESIDUAL WATER CONTENT-- SETTING EXTINCTION WATER CONTENT EQUAL TO RESIDUAL WATER CONTENT

EXTINCTION WATER CONTENT FOR CELL AT ROW     8, COLUMN     5 IS LESS THAN RESIDUAL WATER CONTENT-- SETTING EXTINCTION WATER CONTENT EQUAL TO RESIDUAL WATER CONTENT

EXTINCTION WATER CONTENT FOR CELL AT ROW     8, COLUMN     6 IS LESS THAN RESIDUAL WATER CONTENT-- SETTING EXTINCTION WATER CONTENT EQUAL TO RESIDUAL WATER CONTENT

EXTINCTION WATER CONTENT FOR CELL AT ROW     8, COLUMN     7 IS LESS THAN RESIDUAL WATER CONTENT-- SETTING EXTINCTION WATER CONTENT EQUAL TO RESIDUAL WATER CONTENT

EXTINCTION WATER CONTENT FOR CELL AT ROW     8, COLUMN     8 IS LESS THAN RESIDUAL WATER CONTENT-- SETTING EXTINCTION WATER CONTENT EQUAL TO RESIDUAL WATER CONTENT

EXTINCTION WATER CONTENT FOR CELL AT ROW     8, COLUMN     9 IS LESS THAN RESIDUAL WATER CONTENT-- SETTING EXTINCTION WATER CONTENT EQUAL TO RESIDUAL WATER CONTENT

EXTINCTION WATER CONTENT FOR CELL AT ROW     9, COLUMN     2 IS LESS THAN RESIDUAL WATER CONTENT-- SETTING EXTINCTION WATER CONTENT EQUAL TO RESIDUAL WATER CONTENT

EXTINCTION WATER CONTENT FOR CELL AT ROW     9, COLUMN     3 IS LESS THAN RESIDUAL WATER CONTENT-- SETTING EXTINCTION WATER CONTENT EQUAL TO RESIDUAL WATER CONTENT

EXTINCTION WATER CONTENT FOR CELL AT ROW     9, COLUMN     4 IS LESS THAN RESIDUAL WATER CONTENT-- SETTING EXTINCTION WATER CONTENT EQUAL TO RESIDUAL WATER CONTENT

EXTINCTION WATER CONTENT FOR CELL AT ROW     9, COLUMN     5 IS LESS THAN RESIDUAL WATER CONTENT-- SETTING EXTINCTION WATER CONTENT EQUAL TO RESIDUAL WATER CONTENT

EXTINCTION WATER CONTENT FOR CELL AT ROW     9, COLUMN     6 IS LESS THAN RESIDUAL WATER CONTENT-- SETTING EXTINCTION WATER CONTENT EQUAL TO RESIDUAL WATER CONTENT

EXTINCTION WATER CONTENT FOR CELL AT ROW     9, COLUMN     7 IS LESS THAN RESIDUAL WATER CONTENT-- SETTING EXTINCTION WATER CONTENT EQUAL TO RESIDUAL WATER CONTENT

EXTINCTION WATER CONTENT FOR CELL AT ROW     9, COLUMN     8 IS LESS THAN RESIDUAL WATER CONTENT-- SETTING EXTINCTION WATER CONTENT EQUAL TO RESIDUAL WATER CONTENT

EXTINCTION WATER CONTENT FOR CELL AT ROW     9, COLUMN     9 IS LESS THAN RESIDUAL WATER CONTENT-- SETTING EXTINCTION WATER CONTENT EQUAL TO RESIDUAL WATER CONTENT

EXTINCTION WATER CONTENT FOR CELL AT ROW    10, COLUMN     2 IS LESS THAN RESIDUAL WATER CONTENT-- SETTING EXTINCTION WATER CONTENT EQUAL TO RESIDUAL WATER CONTENT

EXTINCTION WATER CONTENT FOR CELL AT ROW    10, COLUMN     3 IS LESS THAN RESIDUAL WATER CONTENT-- SETTING EXTINCTION WATER CONTENT EQUAL TO RESIDUAL WATER CONTENT

EXTINCTION WATER CONTENT FOR CELL AT ROW    10, COLUMN     4 IS LESS THAN RESIDUAL WATER CONTENT-- SETTING EXTINCTION WATER CONTENT EQUAL TO RESIDUAL WATER CONTENT

EXTINCTION WATER CONTENT FOR CELL AT ROW    10, COLUMN     5 IS LESS THAN RESIDUAL WATER CONTENT-- SETTING EXTINCTION WATER CONTENT EQUAL TO RESIDUAL WATER CONTENT

EXTINCTION WATER CONTENT FOR CELL AT ROW    10, COLUMN     6 IS LESS THAN RESIDUAL WATER CONTENT-- SETTING EXTINCTION WATER CONTENT EQUAL TO RESIDUAL WATER CONTENT

EXTINCTION WATER CONTENT FOR CELL AT ROW    10, COLUMN     7 IS LESS THAN RESIDUAL WATER CONTENT-- SETTING EXTINCTION WATER CONTENT EQUAL TO RESIDUAL WATER CONTENT

EXTINCTION WATER CONTENT FOR CELL AT ROW    10, COLUMN     8 IS LESS THAN RESIDUAL WATER CONTENT-- SETTING EXTINCTION WATER CONTENT EQUAL TO RESIDUAL WATER CONTENT

EXTINCTION WATER CONTENT FOR CELL AT ROW    10, COLUMN     9 IS LESS THAN RESIDUAL WATER CONTENT-- SETTING EXTINCTION WATER CONTENT EQUAL TO RESIDUAL WATER CONTENT

EXTINCTION WATER CONTENT FOR CELL AT ROW    10, COLUMN    10 IS LESS THAN RESIDUAL WATER CONTENT-- SETTING EXTINCTION WATER CONTENT EQUAL TO RESIDUAL WATER CONTENT

EXTINCTION WATER CONTENT FOR CELL AT ROW    11, COLUMN     2 IS LESS THAN RESIDUAL WATER CONTENT-- SETTING EXTINCTION WATER CONTENT EQUAL TO RESIDUAL WATER CONTENT

EXTINCTION WATER CONTENT FOR CELL AT ROW    11, COLUMN     3 IS LESS THAN RESIDUAL WATER CONTENT-- SETTING EXTINCTION WATER CONTENT EQUAL TO RESIDUAL WATER CONTENT

EXTINCTION WATER CONTENT FOR CELL AT ROW    11, COLUMN     4 IS LESS THAN RESIDUAL WATER CONTENT-- SETTING EXTINCTION WATER CONTENT EQUAL TO RESIDUAL WATER CONTENT

EXTINCTION WATER CONTENT FOR CELL AT ROW    11, COLUMN     5 IS LESS THAN RESIDUAL WATER CONTENT-- SETTING EXTINCTION WATER CONTENT EQUAL TO RESIDUAL WATER CONTENT

EXTINCTION WATER CONTENT FOR CELL AT ROW    11, COLUMN     6 IS LESS THAN RESIDUAL WATER CONTENT-- SETTING EXTINCTION WATER CONTENT EQUAL TO RESIDUAL WATER CONTENT

EXTINCTION WATER CONTENT FOR CELL AT ROW    11, COLUMN     7 IS LESS THAN RESIDUAL WATER CONTENT-- SETTING EXTINCTION WATER CONTENT EQUAL TO RESIDUAL WATER CONTENT

EXTINCTION WATER CONTENT FOR CELL AT ROW    11, COLUMN     8 IS LESS THAN RESIDUAL WATER CONTENT-- SETTING EXTINCTION WATER CONTENT EQUAL TO RESIDUAL WATER CONTENT

EXTINCTION WATER CONTENT FOR CELL AT ROW    11, COLUMN     9 IS LESS THAN RESIDUAL WATER CONTENT-- SETTING EXTINCTION WATER CONTENT EQUAL TO RESIDUAL WATER CONTENT

EXTINCTION WATER CONTENT FOR CELL AT ROW    12, COLUMN     1 IS LESS THAN RESIDUAL WATER CONTENT-- SETTING EXTINCTION WATER CONTENT EQUAL TO RESIDUAL WATER CONTENT

EXTINCTION WATER CONTENT FOR CELL AT ROW    12, COLUMN     2 IS LESS THAN RESIDUAL WATER CONTENT-- SETTING EXTINCTION WATER CONTENT EQUAL TO RESIDUAL WATER CONTENT

EXTINCTION WATER CONTENT FOR CELL AT ROW    12, COLUMN     3 IS LESS THAN RESIDUAL WATER CONTENT-- SETTING EXTINCTION WATER CONTENT EQUAL TO RESIDUAL WATER CONTENT

EXTINCTION WATER CONTENT FOR CELL AT ROW    12, COLUMN     4 IS LESS THAN RESIDUAL WATER CONTENT-- SETTING EXTINCTION WATER CONTENT EQUAL TO RESIDUAL WATER CONTENT

EXTINCTION WATER CONTENT FOR CELL AT ROW    12, COLUMN     5 IS LESS THAN RESIDUAL WATER CONTENT-- SETTING EXTINCTION WATER CONTENT EQUAL TO RESIDUAL WATER CONTENT

EXTINCTION WATER CONTENT FOR CELL AT ROW    12, COLUMN     6 IS LESS THAN RESIDUAL WATER CONTENT-- SETTING EXTINCTION WATER CONTENT EQUAL TO RESIDUAL WATER CONTENT

EXTINCTION WATER CONTENT FOR CELL AT ROW    12, COLUMN     7 IS LESS THAN RESIDUAL WATER CONTENT-- SETTING EXTINCTION WATER CONTENT EQUAL TO RESIDUAL WATER CONTENT

EXTINCTION WATER CONTENT FOR CELL AT ROW    12, COLUMN     8 IS LESS THAN RESIDUAL WATER CONTENT-- SETTING EXTINCTION WATER CONTENT EQUAL TO RESIDUAL WATER CONTENT

EXTINCTION WATER CONTENT FOR CELL AT ROW    12, COLUMN     9 IS LESS THAN RESIDUAL WATER CONTENT-- SETTING EXTINCTION WATER CONTENT EQUAL TO RESIDUAL WATER CONTENT

EXTINCTION WATER CONTENT FOR CELL AT ROW    13, COLUMN     1 IS LESS THAN RESIDUAL WATER CONTENT-- SETTING EXTINCTION WATER CONTENT EQUAL TO RESIDUAL WATER CONTENT

EXTINCTION WATER CONTENT FOR CELL AT ROW    13, COLUMN     2 IS LESS THAN RESIDUAL WATER CONTENT-- SETTING EXTINCTION WATER CONTENT EQUAL TO RESIDUAL WATER CONTENT

EXTINCTION WATER CONTENT FOR CELL AT ROW    13, COLUMN     3 IS LESS THAN RESIDUAL WATER CONTENT-- SETTING EXTINCTION WATER CONTENT EQUAL TO RESIDUAL WATER CONTENT

EXTINCTION WATER CONTENT FOR CELL AT ROW    13, COLUMN     4 IS LESS THAN RESIDUAL WATER CONTENT-- SETTING EXTINCTION WATER CONTENT EQUAL TO RESIDUAL WATER CONTENT

EXTINCTION WATER CONTENT FOR CELL AT ROW    13, COLUMN     5 IS LESS THAN RESIDUAL WATER CONTENT-- SETTING EXTINCTION WATER CONTENT EQUAL TO RESIDUAL WATER CONTENT

EXTINCTION WATER CONTENT FOR CELL AT ROW    13, COLUMN     6 IS LESS THAN RESIDUAL WATER CONTENT-- SETTING EXTINCTION WATER CONTENT EQUAL TO RESIDUAL WATER CONTENT

EXTINCTION WATER CONTENT FOR CELL AT ROW    13, COLUMN     7 IS LESS THAN RESIDUAL WATER CONTENT-- SETTING EXTINCTION WATER CONTENT EQUAL TO RESIDUAL WATER CONTENT

EXTINCTION WATER CONTENT FOR CELL AT ROW    13, COLUMN     8 IS LESS THAN RESIDUAL WATER CONTENT-- SETTING EXTINCTION WATER CONTENT EQUAL TO RESIDUAL WATER CONTENT

EXTINCTION WATER CONTENT FOR CELL AT ROW    13, COLUMN     9 IS LESS THAN RESIDUAL WATER CONTENT-- SETTING EXTINCTION WATER CONTENT EQUAL TO RESIDUAL WATER CONTENT

EXTINCTION WATER CONTENT FOR CELL AT ROW    14, COLUMN     2 IS LESS THAN RESIDUAL WATER CONTENT-- SETTING EXTINCTION WATER CONTENT EQUAL TO RESIDUAL WATER CONTENT

EXTINCTION WATER CONTENT FOR CELL AT ROW    14, COLUMN     3 IS LESS THAN RESIDUAL WATER CONTENT-- SETTING EXTINCTION WATER CONTENT EQUAL TO RESIDUAL WATER CONTENT

EXTINCTION WATER CONTENT FOR CELL AT ROW    14, COLUMN     4 IS LESS THAN RESIDUAL WATER CONTENT-- SETTING EXTINCTION WATER CONTENT EQUAL TO RESIDUAL WATER CONTENT

EXTINCTION WATER CONTENT FOR CELL AT ROW    14, COLUMN     5 IS LESS THAN RESIDUAL WATER CONTENT-- SETTING EXTINCTION WATER CONTENT EQUAL TO RESIDUAL WATER CONTENT

EXTINCTION WATER CONTENT FOR CELL AT ROW    14, COLUMN     6 IS LESS THAN RESIDUAL WATER CONTENT-- SETTING EXTINCTION WATER CONTENT EQUAL TO RESIDUAL WATER CONTENT

EXTINCTION WATER CONTENT FOR CELL AT ROW    14, COLUMN     7 IS LESS THAN RESIDUAL WATER CONTENT-- SETTING EXTINCTION WATER CONTENT EQUAL TO RESIDUAL WATER CONTENT

EXTINCTION WATER CONTENT FOR CELL AT ROW    14, COLUMN     8 IS LESS THAN RESIDUAL WATER CONTENT-- SETTING EXTINCTION WATER CONTENT EQUAL TO RESIDUAL WATER CONTENT

EXTINCTION WATER CONTENT FOR CELL AT ROW    14, COLUMN     9 IS LESS THAN RESIDUAL WATER CONTENT-- SETTING EXTINCTION WATER CONTENT EQUAL TO RESIDUAL WATER CONTENT

EXTINCTION WATER CONTENT FOR CELL AT ROW    15, COLUMN     3 IS LESS THAN RESIDUAL WATER CONTENT-- SETTING EXTINCTION WATER CONTENT EQUAL TO RESIDUAL WATER CONTENT

EXTINCTION WATER CONTENT FOR CELL AT ROW    15, COLUMN     4 IS LESS THAN RESIDUAL WATER CONTENT-- SETTING EXTINCTION WATER CONTENT EQUAL TO RESIDUAL WATER CONTENT

EXTINCTION WATER CONTENT FOR CELL AT ROW    15, COLUMN     5 IS LESS THAN RESIDUAL WATER CONTENT-- SETTING EXTINCTION WATER CONTENT EQUAL TO RESIDUAL WATER CONTENT

EXTINCTION WATER CONTENT FOR CELL AT ROW    15, COLUMN     6 IS LESS THAN RESIDUAL WATER CONTENT-- SETTING EXTINCTION WATER CONTENT EQUAL TO RESIDUAL WATER CONTENT

       AIR ENTRY PRESSURE =  -1.10000    

            ROOT PRESSURE =  -75.0000    

            ROOT ACTIVITY =   1.00000    
 # AG segment list

 PROCESSING SEGMENT LIST

 FINISHED READING SEGMENT LIST
 # AG well list

 PROCESSING WELL LIST

 LAYER   ROW   COL   MAX STRESS RATE         
 --------------------------------------------
      1      1      6      4      -100.0    
      2      1      6      5      -100.0    
      3      1      7      4      -100.0    
      4      1      7      5      -100.0    
      5      1      8      4      -100.0    
      6      1      8      5      -100.0    

 FINISHED READING WELL LIST

      6 WELLS

 PROCESSING AG STRESS PERIOD DATA
 # AG stress period

 READING AG STRESS PERIOD DATA

 READING IRRIGATION SEGMENT

 READING IRRIGATION WELL

 READING SUPPLEMENTAL WELL

 NO IRRPOND OR REUSING IRRPOND DATA FROM LAST STRESS PERIOD

 END PROCESSING AG STRESS PERIOD DATA OPTIONS
 
 SOLVING FOR HEAD 
                                                   Max.-Head-Change                         Max.-Flux-Residual
  Residual-Control   Outer-Iter.   Inner-Iter.     Column Row Layer    Maximum-Head-Change  Column Row Layer    Maximum-Flux-Residual          L2-NORM 
          0                 1           6             2    2     1      -0.2843914204E+02       3    3    1        -0.3360741367E+01      0.9336255197E+01
          0                 2           6             1    1     1      -0.3130416790E+02       1   13    1        -0.6347781776E+02      0.6369041900E+02
          0                 3           5             1    1     1      -0.1456238362E+01       6   13    1        -0.2214093411E+01      0.3433614981E+01
          0                 4           5             5   13     1      -0.1645980008E+00       5   13    1        -0.3292040274E+00      0.3977241098E+00
          0                 5           4             5   14     1       0.3281683597E-01       5   13    1         0.1669600623E-01      0.2767763723E-01
          0                 6           2             5   14     1      -0.1281568217E-02       5   13    1        -0.6695036545E-03      0.2031426753E-02
          0                 7           1             5   10     1       0.1511215516E-04       5   10    1         0.2520356338E-04      0.8043332370E-04

    ------------------------------------------------
       NWT REQUIRED            7 OUTER ITERATIONS 
       AND A TOTAL OF         29 INNER ITERATIONS.
    ------------------------------------------------

 OUTPUT CONTROL FOR STRESS PERIOD    1   TIME STEP    1
    PRINT BUDGET
    PRINT HEAD FOR ALL LAYERS
    SAVE BUDGET
    SAVE HEAD FOR ALL LAYERS
 UBDSV2 SAVING "   CONSTANT HEAD" ON UNIT 102 AT TIME STEP 1, STRESS PERIOD 1
 UBDSV1 SAVING "FLOW RIGHT FACE " ON UNIT 102 AT TIME STEP 1, STRESS PERIOD 1
 UBDSV1 SAVING "FLOW FRONT FACE " ON UNIT 102 AT TIME STEP 1, STRESS PERIOD 1

  HEAD DEP BOUNDS   PERIOD    1   STEP     1
 BOUNDARY      1   LAYER   1   ROW    13   COL     1   RATE   -0.287059    
 BOUNDARY      2   LAYER   1   ROW    14   COL     9   RATE    0.285620    



 STREAM LISTING     PERIOD      1   STEP        1

 LAYER ROW COL. STREAM  RCH.  FLOW INTO     FLOW TO   FLOW OUT OF   OVRLND.     DIRECT     STREAM       STREAM     STREAM     STREAM   STREAMBED  STREAMBED
                SEG.NO.  NO.  STRM. RCH.    AQUIFER    STRM. RCH.    RUNOFF     PRECIP       ET          HEAD       DEPTH      WIDTH   CONDCTNC.   GRADIENT

   1    1    1     1     1    3.7500E+00  8.5597E-02   3.6644E+00  0.000E+00  0.000E+00  0.000E+00  1.09373E+03  6.817E-01  5.166E+00  2.325E-02  1.227E+00
   1    2    2     1     2    3.6644E+00  1.3158E-01   3.5328E+00  0.000E+00  0.000E+00  0.000E+00  1.08873E+03  6.747E-01  5.115E+00  3.581E-02  1.225E+00
   1    3    3     1     3    3.5328E+00  1.1125E-01   3.4216E+00  0.000E+00  0.000E+00  0.000E+00  1.08309E+03  6.667E-01  5.057E+00  3.034E-02  1.222E+00
   1    3    4     1     4    3.4216E+00  1.0164E-01   3.3199E+00  0.000E+00  0.000E+00  0.000E+00  1.07807E+03  6.595E-01  5.004E+00  2.777E-02  1.220E+00
   1    4    5     2     1    1.3199E+00  2.4920E-01   1.0707E+00  0.000E+00  0.000E+00  0.000E+00  1.07213E+03  1.948E-01  1.200E+01  7.800E-02  1.065E+00
   1    5    6     2     2    1.0707E+00  1.9035E-01   8.8040E-01  0.000E+00  0.000E+00  0.000E+00  1.06668E+03  1.725E-01  1.200E+01  6.000E-02  1.057E+00
   1    6    6     2     3    8.8040E-01  1.8909E-01   6.9131E-01  0.000E+00  0.000E+00  0.000E+00  1.06194E+03  1.515E-01  1.200E+01  6.000E-02  1.050E+00
   1    7    6     2     4    6.9131E-01  1.8771E-01   5.0360E-01  0.000E+00  0.000E+00  0.000E+00  1.05720E+03  1.285E-01  1.200E+01  6.000E-02  1.043E+00
   1    8    6     2     5    5.0360E-01  1.8616E-01   3.1744E-01  0.000E+00  0.000E+00  0.000E+00  1.05246E+03  1.026E-01  1.200E+01  6.000E-02  1.034E+00
   1    3    5     3     1    2.0000E+00  2.8252E-01   1.7175E+00  0.000E+00  0.000E+00  0.000E+00  1.07555E+03  1.909E+00  9.636E+00  7.227E-02  1.955E+00
   1    3    6     3     2    1.7175E+00  2.4905E-01   1.4684E+00  0.000E+00  0.000E+00  0.000E+00  1.07264E+03  1.727E+00  8.909E+00  6.682E-02  1.864E+00
   1    3    7     3     3    1.4684E+00  1.9718E-01   1.2712E+00  0.000E+00  0.000E+00  0.000E+00  1.06987E+03  1.555E+00  8.218E+00  5.547E-02  1.777E+00
   1    4    8     3     4    1.2712E+00  2.2567E-01   1.0456E+00  0.000E+00  0.000E+00  0.000E+00  1.06682E+03  1.364E+00  7.455E+00  6.709E-02  1.682E+00
   1    5    8     3     5    1.0456E+00  1.5790E-01   8.8768E-01  0.000E+00  0.000E+00  0.000E+00  1.06362E+03  1.164E+00  6.655E+00  4.991E-02  1.582E+00
   1    6    8     3     6    8.8768E-01  5.5980E-02   8.3170E-01  0.000E+00  0.000E+00  0.000E+00  1.06158E+03  1.036E+00  6.145E+00  1.844E-02  1.518E+00
   1    5   10     4     1    1.0000E+01  9.0919E-02   9.9091E+00  0.000E+00  0.000E+00  0.000E+00  1.07836E+03  6.368E-01  1.000E+01  2.500E-02  1.212E+00
   1    5    9     4     2    9.9091E+00  1.8158E-01   9.7275E+00  0.000E+00  0.000E+00  0.000E+00  1.07154E+03  6.315E-01  1.000E+01  5.000E-02  1.211E+00
   1    6    8     4     3    9.7275E+00  1.2689E-01   9.6006E+00  0.000E+00  0.000E+00  0.000E+00  1.06381E+03  6.256E-01  1.000E+01  3.500E-02  1.209E+00
   1    6    8     5     1    1.0432E+01  2.2686E-01   1.0205E+01  0.000E+00  0.000E+00  0.000E+00  1.05868E+03  6.790E-01  1.542E+01  6.166E-02  1.226E+00
   1    7    7     5     2    1.0205E+01  2.7894E-01   9.9265E+00  0.000E+00  0.000E+00  0.000E+00  1.05417E+03  6.732E-01  1.519E+01  7.594E-02  1.224E+00
   1    8    7     5     3    9.9265E+00  1.9221E-01   9.7343E+00  0.000E+00  0.000E+00  0.000E+00  1.04992E+03  6.676E-01  1.497E+01  5.241E-02  1.223E+00
   1    8    6     5     4    9.7343E+00  1.3577E-01   9.5985E+00  0.000E+00  0.000E+00  0.000E+00  1.04691E+03  6.637E-01  1.482E+01  3.706E-02  1.221E+00
   1    9    6     6     1    9.9160E+00  2.2178E-01   9.6942E+00  0.000E+00  0.000E+00  0.000E+00  1.04342E+03  6.964E-01  1.200E+01  6.000E-02  1.232E+00
   1   10    7     6     2    9.6942E+00  2.2121E-01   9.4730E+00  0.000E+00  0.000E+00  0.000E+00  1.03887E+03  6.869E-01  1.200E+01  6.000E-02  1.229E+00
   1   11    7     6     3    9.4730E+00  2.2064E-01   9.2523E+00  0.000E+00  0.000E+00  0.000E+00  1.03431E+03  6.773E-01  1.200E+01  6.000E-02  1.226E+00
   1   12    7     6     4    9.2523E+00  2.2006E-01   9.0323E+00  0.000E+00  0.000E+00  0.000E+00  1.02976E+03  6.677E-01  1.200E+01  6.000E-02  1.223E+00
   1   13    7     6     5    9.0323E+00 -1.1354E-01   9.1458E+00  0.000E+00  0.000E+00  0.000E+00  1.02657E+03  6.654E-01  1.200E+01  2.400E-01 -1.577E-01
   1   14    9     7     1    1.5000E+02  1.3338E+00   1.4867E+02  0.000E+00  0.000E+00  0.000E+00  1.03987E+03  2.288E+00  5.529E+01  5.593E-01  7.949E-01
   1   13    8     7     2    1.4867E+02  1.8355E+00   1.4683E+02  0.000E+00  0.000E+00  0.000E+00  1.03478E+03  2.279E+00  5.526E+01  6.148E-01  9.952E-01
   1   13    7     7     3    1.4683E+02  1.4756E+00   1.4536E+02  0.000E+00  0.000E+00  0.000E+00  1.02969E+03  2.270E+00  5.522E+01  5.585E-01  8.807E-01
   1   13    6     8     1    1.5450E+02  8.2944E-01   1.5367E+02  0.000E+00  0.000E+00  0.000E+00  1.02472E+03  2.845E+00  4.126E+01  4.204E-01  6.576E-01
   1   13    5     8     2    1.5367E+02  1.0127E-01   1.5357E+02  0.000E+00  0.000E+00  0.000E+00  1.01847E+03  2.842E+00  4.121E+01  4.200E-01  8.038E-02
   1   13    4     8     3    1.5357E+02 -2.6792E+00   1.5625E+02  0.000E+00  0.000E+00  0.000E+00  1.01223E+03  2.851E+00  4.134E+01  4.213E+00 -2.120E-01
   1   13    3     8     4    1.5625E+02 -3.7567E+00   1.6001E+02  0.000E+00  0.000E+00  0.000E+00  1.00600E+03  2.873E+00  4.166E+01  4.245E+00 -2.950E-01
   1   13    2     8     5    1.6001E+02 -2.6055E+00   1.6261E+02  0.000E+00  0.000E+00  0.000E+00  9.99770E+02  2.895E+00  4.197E+01  4.277E+00 -2.031E-01
   1   13    1     8     6    1.6261E+02 -1.9843E+00   1.6460E+02  0.000E+00  0.000E+00  0.000E+00  9.94785E+02  2.910E+00  4.220E+01  2.580E+00 -2.564E-01
   1    8    6     9     1    0.0000E+00  0.0000E+00   0.0000E+00  0.000E+00  0.000E+00  0.000E+00  1.07875E+03  0.000E+00  4.000E+00  0.000E+00  1.000E+00
   1    8    5     9     2    0.0000E+00  0.0000E+00   0.0000E+00  0.000E+00  0.000E+00  0.000E+00  1.07825E+03  0.000E+00  4.000E+00  0.000E+00  1.000E+00



 UBDSV3 SAVING "           GW ET" ON UNIT  61 AT TIME STEP 1, STRESS PERIOD 1
 UBDSV3 SAVING "    UZF RECHARGE" ON UNIT  61 AT TIME STEP 1, STRESS PERIOD 1
 UBDSV3 SAVING " SURFACE LEAKAGE" ON UNIT  61 AT TIME STEP 1, STRESS PERIOD 1
 UBDSV3 SAVING "       HORT+DUNN" ON UNIT  61 AT TIME STEP 1, STRESS PERIOD 1
 UBDSV3 SAVING "  STORAGE CHANGE" ON UNIT  61 AT TIME STEP 1, STRESS PERIOD 1


UNSATURATED ZONE PACKAGE VOLUMETRIC BUDGET FOR  TIME STEP     1 STRESS PERIOD    1
  ------------------------------------------------------------------------------



     CUMULATIVE VOLUMES      L**3       RATES FOR THIS TIME STEP      L**3/T
     ------------------                 ------------------------

           IN:                                      IN:
           ---                                      ---
        INFILTRATION =       73224.0000          INFILTRATION =           0.8475

          OUT:                                     OUT:
          ----                                     ----
              UZF ET =       0.0000E+00                UZF ET =       0.0000E+00
        UZF RECHARGE =       73224.0000          UZF RECHARGE =           0.8475

            IN - OUT =       0.0000E+00              IN - OUT =       0.0000E+00

          STORAGE:                                 STORAGE:
          --------                                 --------
      STORAGE CHANGE =       0.0000E+00        STORAGE CHANGE =       0.0000E+00

 PERCENT DISCREPANCY IS DIFFERENCE BETWEEN IN-OUT MINUS CHANGE IN STORAGE
 DIVIDED BY THE AVERAGE OF IN AND OUT TIMES 100

 PERCENT DISCREPANCY =           0.00     PERCENT DISCREPANCY =           0.00






 

            AG WELLS      PERIOD    1   STEP   1
 AG WELL      1   LAYER   1   ROW     6   COL     4   RATE     0.00000    
 AG WELL      2   LAYER   1   ROW     6   COL     5   RATE     0.00000    
 AG WELL      3   LAYER   1   ROW     7   COL     4   RATE     0.00000    
 AG WELL      4   LAYER   1   ROW     7   COL     5   RATE     0.00000    
 AG WELL      5   LAYER   1   ROW     8   COL     4   RATE     0.00000    
 AG WELL      6   LAYER   1   ROW     8   COL     5   RATE     0.00000    
 
 

   DIVERSION SEGMENTS     PERIOD    1   STEP   1
 
 

        SW IRRIGATION     PERIOD    1   STEP   1
 
 

        GW IRRIGATION     PERIOD    1   STEP   1
 
1
  VOLUMETRIC BUDGET FOR AGRICULTURAL FIELDS AT  END OF TIME STEP    1, STRESS PERIOD   1
  ------------------------------------------------------------------------------

     CUMULATIVE VOLUMES      L**3       RATES FOR THIS TIME STEP      L**3/T
     ------------------                 ------------------------

           IN:                                      IN:
           ---                                      ---
               AG WELLS  =           0.0000                 AG WELLS  =           0.0000
      DIVERSION SEGMENTS =           0.0000        DIVERSION SEGMENTS =           0.0000
       IRRIGATION PONDS  =           0.0000         IRRIGATION PONDS  =           0.0000
           GW IRRIGATION =           0.0000             GW IRRIGATION =           0.0000
           SW IRRIGATION =           0.0000             SW IRRIGATION =           0.0000
        SYSTEM LOSSES GW =           0.0000          SYSTEM LOSSES GW =           0.0000
        SYSTEM LOSSES SW =           0.0000          SYSTEM LOSSES SW =           0.0000

                TOTAL IN =           0.0000                  TOTAL IN =           0.0000

          OUT:                                     OUT:
          ----                                     ----
               AG WELLS  =           0.0000                 AG WELLS  =           0.0000
      DIVERSION SEGMENTS =           0.0000        DIVERSION SEGMENTS =           0.0000
       IRRIGATION PONDS  =           0.0000         IRRIGATION PONDS  =           0.0000
           GW IRRIGATION =           0.0000             GW IRRIGATION =           0.0000
           SW IRRIGATION =           0.0000             SW IRRIGATION =           0.0000
        SYSTEM LOSSES GW =           0.0000          SYSTEM LOSSES GW =           0.0000
        SYSTEM LOSSES SW =           0.0000          SYSTEM LOSSES SW =           0.0000

               TOTAL OUT =           0.0000                 TOTAL OUT =           0.0000

                IN - OUT =           0.0000                  IN - OUT =           0.0000

     PERCENT DISCREPANCY =           0.00         PERCENT DISCREPANCY =           0.00



1
              HEAD IN LAYER 1 AT END OF TIME STEP 1 IN STRESS PERIOD 1
  ---------------------------------------------------------------------------

           1       2       3       4       5       6       7       8       9      10
 ...................................................................................
   1  1032.36 1031.32 6999.00 6999.00 6999.00 6999.00 6999.00 6999.00 6999.00 6999.00
   2  1031.40 1030.17 1029.58 6999.00 6999.00 1030.68 1030.83 1030.79 6999.00 6999.00
   3  6999.00 1029.27 1028.96 1028.73 1029.28 1029.91 1030.40 1030.37 6999.00 6999.00
   4  1028.57 1028.53 1028.35 1028.17 1028.24 1028.30 1028.78 1029.83 1029.56 6999.00
   5  1028.13 1027.76 1027.59 1027.51 1027.61 1027.82 1027.99 1028.47 1029.10 1029.63
   6  1027.57 1027.02 1026.83 1026.81 1026.93 1027.26 1027.55 1028.08 1028.52 1029.45
   7  1027.07 1026.08 1025.92 1025.96 1026.14 1026.55 1026.98 1027.45 1027.96 6999.00
   8  6999.00 1024.71 1024.75 1024.91 1025.15 1025.65 1026.08 1026.80 1027.36 6999.00
   9  6999.00 1022.70 1023.03 1023.48 1023.88 1024.53 1025.05 1025.79 1026.91 6999.00
  10  6999.00 1019.87 1020.64 1021.69 1022.47 1023.49 1024.39 1025.46 1027.07 1027.71
  11  6999.00 1015.35 1016.78 1019.32 1020.96 1022.69 1024.22 1026.00 1028.19 6999.00
  12  1001.91 1007.94 1012.08 1016.04 1019.32 1022.30 1024.79 1028.19 1031.18 6999.00
  13   995.55 1000.38 1006.88 1012.86 1018.23 1022.75 1027.05 1031.79 1034.63 6999.00
  14  6999.00 1005.79 1008.88 1013.53 1018.29 1022.70 1027.60 1033.07 1037.48 6999.00
  15  6999.00 6999.00 1012.52 1015.24 1018.71 1021.73 6999.00 6999.00 6999.00 6999.00

 HEAD WILL BE SAVED ON UNIT   62 AT END OF TIME STEP    1, STRESS PERIOD    1
1
  VOLUMETRIC BUDGET FOR ENTIRE MODEL AT END OF TIME STEP    1, STRESS PERIOD   1
  ------------------------------------------------------------------------------

     CUMULATIVE VOLUMES      L**3       RATES FOR THIS TIME STEP      L**3/T
     ------------------                 ------------------------

           IN:                                      IN:
           ---                                      ---
             STORAGE     =           0.0000               STORAGE     =           0.0000
       CONSTANT HEAD     =           0.0000         CONSTANT HEAD     =           0.0000
     HEAD DEP BOUNDS     =       24677.5273       HEAD DEP BOUNDS     =           0.2856
      STREAM LEAKAGE     =      889333.8125        STREAM LEAKAGE     =          10.2932
        UZF RECHARGE     =       73223.9531          UZF RECHARGE     =           0.8475
               GW ET     =           0.0000                 GW ET     =           0.0000
     SURFACE LEAKAGE     =           0.0000       SURFACE LEAKAGE     =           0.0000
           AG WELLS      =           0.0000             AG WELLS      =           0.0000

                TOTAL IN =      987235.2500                  TOTAL IN =          11.4263

          OUT:                                     OUT:
          ----                                     ----
             STORAGE     =           0.0000               STORAGE     =           0.0000
       CONSTANT HEAD     =           0.0000         CONSTANT HEAD     =           0.0000
     HEAD DEP BOUNDS     =       24801.8672       HEAD DEP BOUNDS     =           0.2871
      STREAM LEAKAGE     =      962433.3125        STREAM LEAKAGE     =          11.1393
        UZF RECHARGE     =           0.0000          UZF RECHARGE     =           0.0000
               GW ET     =           0.0000                 GW ET     =           0.0000
     SURFACE LEAKAGE     =           0.0000       SURFACE LEAKAGE     =           0.0000
           AG WELLS      =           0.0000             AG WELLS      =           0.0000

               TOTAL OUT =      987235.1875                 TOTAL OUT =          11.4263

                IN - OUT =       6.2500E-02                  IN - OUT =       1.9073E-06

     PERCENT DISCREPANCY =           0.00         PERCENT DISCREPANCY =           0.00






         TIME SUMMARY AT END OF TIME STEP    1 IN STRESS PERIOD    1
                    SECONDS     MINUTES      HOURS       DAYS        YEARS
                    -----------------------------------------------------------
   TIME STEP LENGTH  86400.      1440.0      24.000      1.0000     2.73785E-03
 STRESS PERIOD TIME  86400.      1440.0      24.000      1.0000     2.73785E-03
         TOTAL TIME  86400.      1440.0      24.000      1.0000     2.73785E-03
1
1
                            STRESS PERIOD NO.    2, LENGTH =   2630000.    
                            -----------------------------------------------

                              NUMBER OF TIME STEPS =    30

                               MULTIPLIER FOR DELT =     1.000

                            INITIAL TIME STEP SIZE =   87666.66    

 REUSING NON-PARAMETER GHB CELLS FROM LAST STRESS PERIOD

      2 GHB CELLS

 REUSING STREAM SEGMENT DATA FROM LAST STRESS PERIOD



            AREAL INFILTRATION RATE
 READING ON UNIT   19 WITH FORMAT: (FREE)              

            1           2           3           4           5           6           7           8           9          10
 ........................................................................................................................
   1   1.0000E-10  2.0000E-10   0.000       0.000       0.000       0.000       0.000       0.000       0.000       0.000    
   2   2.0000E-10  1.0000E-10  2.0000E-10   0.000       0.000      8.0000E-10  8.0000E-10  5.0000E-10   0.000       0.000    
   3    0.000      5.0000E-10  1.0000E-10  1.0000E-10  8.0000E-10  8.0000E-10  5.0000E-10  5.0000E-10   0.000       0.000    
   4   8.0000E-10  5.0000E-10  1.0000E-10  1.0000E-10  1.0000E-10  1.0000E-10  1.0000E-10  1.0000E-10  2.0000E-10   0.000    
   5   8.0000E-10  5.0000E-10  1.0000E-10  1.0000E-10  1.0000E-10  1.0000E-10  1.0000E-10  1.0000E-10  1.0000E-10  1.0000E-10
   6   8.0000E-10  5.0000E-10  5.0000E-10  2.0000E-10  2.0000E-10  1.0000E-10  1.0000E-10  1.0000E-10  1.0000E-10  5.0000E-10
   7   8.0000E-10  5.0000E-10  5.0000E-10  2.0000E-10  2.0000E-10  1.0000E-10  1.0000E-10  2.0000E-10  2.0000E-10   0.000    
   8    0.000      5.0000E-10  5.0000E-10  2.0000E-10  2.0000E-10  1.0000E-10  1.0000E-10  2.0000E-10  5.0000E-10   0.000    
   9    0.000      5.0000E-10  5.0000E-10  2.0000E-10  2.0000E-10  1.0000E-10  1.0000E-10  2.0000E-10  5.0000E-10   0.000    
  10    0.000      5.0000E-10  5.0000E-10  2.0000E-10  2.0000E-10  1.0000E-10  1.0000E-10  2.0000E-10  5.0000E-10  8.0000E-10
  11    0.000      1.0000E-10  1.0000E-10  1.0000E-10  1.0000E-10  1.0000E-10  1.0000E-10  2.0000E-10  5.0000E-10   0.000    
  12   1.0000E-10  1.0000E-10  1.0000E-10  1.0000E-10  1.0000E-10  1.0000E-10  1.0000E-10  1.0000E-10  2.0000E-10   0.000    
  13   1.0000E-10  1.0000E-10  2.0000E-10  2.0000E-10  2.0000E-10  2.0000E-10  2.0000E-10  1.0000E-10  1.0000E-10   0.000    
  14    0.000      2.0000E-10  5.0000E-10  5.0000E-10  5.0000E-10  5.0000E-10  5.0000E-10  2.0000E-10  1.0000E-10   0.000    
  15    0.000       0.000      8.0000E-10  8.0000E-10  8.0000E-10  8.0000E-10   0.000       0.000       0.000       0.000    

                  ET RATE =  5.000000E-10

 USING ET EXTINCTION DEPTH FROM PREVIOUS STRESS PERIOD. CURRENT PERIOD IS:       2

 USING EXTINCTION WATER CONTENT FROM PREVIOUS STRESS PERIOD. CURRENT PERIOD IS:       2

 USING AIR ENTRY PRESSURE FROM PREVIOUS STRESS PERIOD. CURRENT PERIOD IS:       2

 USING ROOT PRESSURE HEAD FROM PREVIOUS STRESS PERIOD. CURRENT PERIOD IS:       2

 USING ROOT ACTIVITY FROM PREVIOUS STRESS PERIOD. CURRENT PERIOD IS:       2

 PROCESSING AG STRESS PERIOD DATA

 READING AG STRESS PERIOD DATA

 READING IRRIGATION SEGMENT

 READING IRRIGATION WELL

 READING SUPPLEMENTAL WELL

 NO IRRPOND OR REUSING IRRPOND DATA FROM LAST STRESS PERIOD

 END PROCESSING AG STRESS PERIOD DATA OPTIONS
 
 SOLVING FOR HEAD 
                                                   Max.-Head-Change                         Max.-Flux-Residual
  Residual-Control   Outer-Iter.   Inner-Iter.     Column Row Layer    Maximum-Head-Change  Column Row Layer    Maximum-Flux-Residual          L2-NORM 
          0                 1           2             4   13     1       0.4516100753E-02       4   13    1         0.2587987040E+00      0.5590012886E+00
          0                 2           2             4   13     1      -0.4346411766E-03       4   13    1        -0.2560932580E-01      0.5485710693E-01
          0                 3           1             4   13     1       0.2918268524E-04       4   13    1         0.1767874254E-02      0.3744006766E-02

    ------------------------------------------------
       NWT REQUIRED            3 OUTER ITERATIONS 
       AND A TOTAL OF          5 INNER ITERATIONS.
    ------------------------------------------------

 OUTPUT CONTROL FOR STRESS PERIOD    2   TIME STEP    1
    PRINT BUDGET
    PRINT HEAD FOR ALL LAYERS
    SAVE BUDGET
 UBDSV1 SAVING "         STORAGE" ON UNIT 102 AT TIME STEP 1, STRESS PERIOD 2
 UBDSV2 SAVING "   CONSTANT HEAD" ON UNIT 102 AT TIME STEP 1, STRESS PERIOD 2
 UBDSV1 SAVING "FLOW RIGHT FACE " ON UNIT 102 AT TIME STEP 1, STRESS PERIOD 2
 UBDSV1 SAVING "FLOW FRONT FACE " ON UNIT 102 AT TIME STEP 1, STRESS PERIOD 2

  HEAD DEP BOUNDS   PERIOD    2   STEP     1
 BOUNDARY      1   LAYER   1   ROW    13   COL     1   RATE   -0.287146    
 BOUNDARY      2   LAYER   1   ROW    14   COL     9   RATE    0.285621    



 STREAM LISTING     PERIOD      2   STEP        1

 LAYER ROW COL. STREAM  RCH.  FLOW INTO     FLOW TO   FLOW OUT OF   OVRLND.     DIRECT     STREAM       STREAM     STREAM     STREAM   STREAMBED  STREAMBED
                SEG.NO.  NO.  STRM. RCH.    AQUIFER    STRM. RCH.    RUNOFF     PRECIP       ET          HEAD       DEPTH      WIDTH   CONDCTNC.   GRADIENT

   1    1    1     1     1    1.6500E+01  1.9759E-01   1.6302E+01  0.000E+00  0.000E+00  0.000E+00  1.09409E+03  1.039E+00  1.087E+01  4.893E-02  1.346E+00
   1    2    2     1     2    1.6302E+01  3.0466E-01   1.5998E+01  0.000E+00  0.000E+00  0.000E+00  1.08909E+03  1.034E+00  1.079E+01  7.552E-02  1.345E+00
   1    3    3     1     3    1.5998E+01  2.5853E-01   1.5739E+01  0.000E+00  0.000E+00  0.000E+00  1.08345E+03  1.029E+00  1.070E+01  6.417E-02  1.343E+00
   1    3    4     1     4    1.5739E+01  2.3700E-01   1.5502E+01  0.000E+00  0.000E+00  0.000E+00  1.07843E+03  1.024E+00  1.061E+01  5.889E-02  1.341E+00
   1    4    5     2     1    1.3502E+01  2.9865E-01   1.3204E+01  0.000E+00  0.000E+00  0.000E+00  1.07276E+03  8.289E-01  1.200E+01  7.800E-02  1.276E+00
   1    5    6     2     2    1.3204E+01  2.2914E-01   1.2974E+01  0.000E+00  0.000E+00  0.000E+00  1.06733E+03  8.190E-01  1.200E+01  6.000E-02  1.273E+00
   1    6    6     2     3    1.2974E+01  2.2862E-01   1.2746E+01  0.000E+00  0.000E+00  0.000E+00  1.06260E+03  8.104E-01  1.200E+01  6.000E-02  1.270E+00
   1    7    6     2     4    1.2746E+01  2.2810E-01   1.2518E+01  0.000E+00  0.000E+00  0.000E+00  1.05788E+03  8.017E-01  1.200E+01  6.000E-02  1.267E+00
   1    8    6     2     5    1.2518E+01  2.2758E-01   1.2290E+01  0.000E+00  0.000E+00  0.000E+00  1.05315E+03  7.930E-01  1.200E+01  6.000E-02  1.264E+00
   1    3    5     3     1    2.0000E+00  2.8252E-01   1.7175E+00  0.000E+00  0.000E+00  0.000E+00  1.07555E+03  1.909E+00  9.636E+00  7.227E-02  1.955E+00
   1    3    6     3     2    1.7175E+00  2.4905E-01   1.4684E+00  0.000E+00  0.000E+00  0.000E+00  1.07264E+03  1.727E+00  8.909E+00  6.682E-02  1.864E+00
   1    3    7     3     3    1.4684E+00  1.9718E-01   1.2712E+00  0.000E+00  0.000E+00  0.000E+00  1.06987E+03  1.555E+00  8.218E+00  5.547E-02  1.777E+00
   1    4    8     3     4    1.2712E+00  2.2567E-01   1.0456E+00  0.000E+00  0.000E+00  0.000E+00  1.06682E+03  1.364E+00  7.455E+00  6.709E-02  1.682E+00
   1    5    8     3     5    1.0456E+00  1.5790E-01   8.8768E-01  0.000E+00  0.000E+00  0.000E+00  1.06362E+03  1.164E+00  6.655E+00  4.991E-02  1.582E+00
   1    6    8     3     6    8.8768E-01  5.5980E-02   8.3170E-01  0.000E+00  0.000E+00  0.000E+00  1.06158E+03  1.036E+00  6.145E+00  1.844E-02  1.518E+00
   1    5   10     4     1    1.0000E+01  9.0919E-02   9.9091E+00  0.000E+00  0.000E+00  0.000E+00  1.07836E+03  6.368E-01  1.000E+01  2.500E-02  1.212E+00
   1    5    9     4     2    9.9091E+00  1.8158E-01   9.7275E+00  0.000E+00  0.000E+00  0.000E+00  1.07154E+03  6.315E-01  1.000E+01  5.000E-02  1.211E+00
   1    6    8     4     3    9.7275E+00  1.2689E-01   9.6006E+00  0.000E+00  0.000E+00  0.000E+00  1.06381E+03  6.256E-01  1.000E+01  3.500E-02  1.209E+00
   1    6    8     5     1    1.0432E+01  2.2686E-01   1.0205E+01  0.000E+00  0.000E+00  0.000E+00  1.05868E+03  6.790E-01  1.542E+01  6.166E-02  1.226E+00
   1    7    7     5     2    1.0205E+01  2.7894E-01   9.9265E+00  0.000E+00  0.000E+00  0.000E+00  1.05417E+03  6.732E-01  1.519E+01  7.594E-02  1.224E+00
   1    8    7     5     3    9.9265E+00  1.9221E-01   9.7343E+00  0.000E+00  0.000E+00  0.000E+00  1.04992E+03  6.676E-01  1.497E+01  5.241E-02  1.223E+00
   1    8    6     5     4    9.7343E+00  1.3577E-01   9.5985E+00  0.000E+00  0.000E+00  0.000E+00  1.04691E+03  6.637E-01  1.482E+01  3.706E-02  1.221E+00
   1    9    6     6     1    2.1889E+01  2.4742E-01   2.1641E+01  0.000E+00  0.000E+00  0.000E+00  1.04385E+03  1.124E+00  1.200E+01  6.000E-02  1.375E+00
   1   10    7     6     2    2.1641E+01  2.4696E-01   2.1394E+01  0.000E+00  0.000E+00  0.000E+00  1.03930E+03  1.116E+00  1.200E+01  6.000E-02  1.372E+00
   1   11    7     6     3    2.1394E+01  2.4650E-01   2.1148E+01  0.000E+00  0.000E+00  0.000E+00  1.03474E+03  1.108E+00  1.200E+01  6.000E-02  1.369E+00
   1   12    7     6     4    2.1148E+01  2.4603E-01   2.0902E+01  0.000E+00  0.000E+00  0.000E+00  1.03019E+03  1.101E+00  1.200E+01  6.000E-02  1.367E+00
   1   13    7     6     5    2.0902E+01 -1.0396E-02   2.0912E+01  0.000E+00  0.000E+00  0.000E+00  1.02701E+03  1.097E+00  1.200E+01  2.400E-01 -1.444E-02
   1   14    9     7     1    1.5000E+02  1.3338E+00   1.4867E+02  0.000E+00  0.000E+00  0.000E+00  1.03987E+03  2.288E+00  5.529E+01  5.593E-01  7.949E-01
   1   13    8     7     2    1.4867E+02  1.8355E+00   1.4683E+02  0.000E+00  0.000E+00  0.000E+00  1.03478E+03  2.279E+00  5.526E+01  6.148E-01  9.952E-01
   1   13    7     7     3    1.4683E+02  1.4746E+00   1.4536E+02  0.000E+00  0.000E+00  0.000E+00  1.02969E+03  2.270E+00  5.522E+01  5.585E-01  8.802E-01
   1   13    6     8     1    1.6627E+02  8.8653E-01   1.6538E+02  0.000E+00  0.000E+00  0.000E+00  1.02480E+03  2.925E+00  4.241E+01  4.322E-01  6.838E-01
   1   13    5     8     2    1.6538E+02  1.3805E-01   1.6524E+02  0.000E+00  0.000E+00  0.000E+00  1.01855E+03  2.921E+00  4.236E+01  4.317E-01  1.066E-01
   1   13    4     8     3    1.6524E+02 -2.4329E+00   1.6768E+02  0.000E+00  0.000E+00  0.000E+00  1.01230E+03  2.929E+00  4.247E+01  4.328E+00 -1.874E-01
   1   13    3     8     4    1.6768E+02 -3.5424E+00   1.7122E+02  0.000E+00  0.000E+00  0.000E+00  1.00607E+03  2.949E+00  4.275E+01  4.357E+00 -2.710E-01
   1   13    2     8     5    1.7122E+02 -2.3687E+00   1.7359E+02  0.000E+00  0.000E+00  0.000E+00  9.99843E+02  2.968E+00  4.303E+01  4.385E+00 -1.800E-01
   1   13    1     8     6    1.7359E+02 -1.8506E+00   1.7544E+02  0.000E+00  0.000E+00  0.000E+00  9.94856E+02  2.981E+00  4.323E+01  2.643E+00 -2.334E-01
   1    8    6     9     1    0.0000E+00  0.0000E+00   0.0000E+00  0.000E+00  0.000E+00  0.000E+00  1.07875E+03  0.000E+00  4.000E+00  0.000E+00  1.000E+00
   1    8    5     9     2    0.0000E+00  0.0000E+00   0.0000E+00  0.000E+00  0.000E+00  0.000E+00  1.07825E+03  0.000E+00  4.000E+00  0.000E+00  1.000E+00



 UBDSV3 SAVING "           GW ET" ON UNIT  61 AT TIME STEP 1, STRESS PERIOD 2
 UBDSV3 SAVING "    UZF RECHARGE" ON UNIT  61 AT TIME STEP 1, STRESS PERIOD 2
 UBDSV3 SAVING " SURFACE LEAKAGE" ON UNIT  61 AT TIME STEP 1, STRESS PERIOD 2
 UBDSV3 SAVING "       HORT+DUNN" ON UNIT  61 AT TIME STEP 1, STRESS PERIOD 2
 UBDSV3 SAVING "  STORAGE CHANGE" ON UNIT  61 AT TIME STEP 1, STRESS PERIOD 2


UNSATURATED ZONE PACKAGE VOLUMETRIC BUDGET FOR  TIME STEP     1 STRESS PERIOD    2
  ------------------------------------------------------------------------------



     CUMULATIVE VOLUMES      L**3       RATES FOR THIS TIME STEP      L**3/T
     ------------------                 ------------------------

           IN:                                      IN:
           ---                                      ---
        INFILTRATION =      147521.4958          INFILTRATION =           0.8475

          OUT:                                     OUT:
          ----                                     ----
              UZF ET =       65735.6246                UZF ET =           0.7498
        UZF RECHARGE =       73224.0000          UZF RECHARGE =       0.0000E+00

            IN - OUT =        8561.8711              IN - OUT =       9.7664E-02

          STORAGE:                                 STORAGE:
          --------                                 --------
      STORAGE CHANGE =        8561.8717        STORAGE CHANGE =       9.7664E-02

 PERCENT DISCREPANCY IS DIFFERENCE BETWEEN IN-OUT MINUS CHANGE IN STORAGE
 DIVIDED BY THE AVERAGE OF IN AND OUT TIMES 100

 PERCENT DISCREPANCY =           0.00     PERCENT DISCREPANCY =           0.00






 

            AG WELLS      PERIOD    2   STEP   1
 AG WELL      1   LAYER   1   ROW     6   COL     4   RATE     0.00000    
 AG WELL      2   LAYER   1   ROW     6   COL     5   RATE     0.00000    
 AG WELL      3   LAYER   1   ROW     7   COL     4   RATE     0.00000    
 AG WELL      4   LAYER   1   ROW     7   COL     5   RATE     0.00000    
 AG WELL      5   LAYER   1   ROW     8   COL     4   RATE     0.00000    
 AG WELL      6   LAYER   1   ROW     8   COL     5   RATE     0.00000    
 
 

   DIVERSION SEGMENTS     PERIOD    2   STEP   1
 
 

        SW IRRIGATION     PERIOD    2   STEP   1
 
 

        GW IRRIGATION     PERIOD    2   STEP   1
 
1
  VOLUMETRIC BUDGET FOR AGRICULTURAL FIELDS AT  END OF TIME STEP    1, STRESS PERIOD   2
  ------------------------------------------------------------------------------

     CUMULATIVE VOLUMES      L**3       RATES FOR THIS TIME STEP      L**3/T
     ------------------                 ------------------------

           IN:                                      IN:
           ---                                      ---
               AG WELLS  =           0.0000                 AG WELLS  =           0.0000
      DIVERSION SEGMENTS =           0.0000        DIVERSION SEGMENTS =           0.0000
       IRRIGATION PONDS  =           0.0000         IRRIGATION PONDS  =           0.0000
           GW IRRIGATION =           0.0000             GW IRRIGATION =           0.0000
           SW IRRIGATION =           0.0000             SW IRRIGATION =           0.0000
        SYSTEM LOSSES GW =           0.0000          SYSTEM LOSSES GW =           0.0000
        SYSTEM LOSSES SW =           0.0000          SYSTEM LOSSES SW =           0.0000

                TOTAL IN =           0.0000                  TOTAL IN =           0.0000

          OUT:                                     OUT:
          ----                                     ----
               AG WELLS  =           0.0000                 AG WELLS  =           0.0000
      DIVERSION SEGMENTS =           0.0000        DIVERSION SEGMENTS =           0.0000
       IRRIGATION PONDS  =           0.0000         IRRIGATION PONDS  =           0.0000
           GW IRRIGATION =           0.0000             GW IRRIGATION =           0.0000
           SW IRRIGATION =           0.0000             SW IRRIGATION =           0.0000
        SYSTEM LOSSES GW =           0.0000          SYSTEM LOSSES GW =           0.0000
        SYSTEM LOSSES SW =           0.0000          SYSTEM LOSSES SW =           0.0000

               TOTAL OUT =           0.0000                 TOTAL OUT =           0.0000

                IN - OUT =           0.0000                  IN - OUT =           0.0000

     PERCENT DISCREPANCY =           0.00         PERCENT DISCREPANCY =           0.00



1
              HEAD IN LAYER 1 AT END OF TIME STEP 1 IN STRESS PERIOD 2
  ---------------------------------------------------------------------------

           1       2       3       4       5       6       7       8       9      10
 ...................................................................................
   1  1032.36 1031.32 6999.00 6999.00 6999.00 6999.00 6999.00 6999.00 6999.00 6999.00
   2  1031.40 1030.17 1029.58 6999.00 6999.00 1030.68 1030.83 1030.79 6999.00 6999.00
   3  6999.00 1029.27 1028.96 1028.74 1029.28 1029.91 1030.40 1030.37 6999.00 6999.00
   4  1028.57 1028.53 1028.35 1028.17 1028.24 1028.30 1028.78 1029.83 1029.56 6999.00
   5  1028.13 1027.76 1027.59 1027.51 1027.61 1027.82 1027.99 1028.47 1029.10 1029.63
   6  1027.57 1027.02 1026.83 1026.81 1026.93 1027.26 1027.55 1028.08 1028.52 1029.45
   7  1027.07 1026.08 1025.92 1025.96 1026.14 1026.55 1026.98 1027.45 1027.96 6999.00
   8  6999.00 1024.71 1024.75 1024.91 1025.15 1025.65 1026.08 1026.80 1027.36 6999.00
   9  6999.00 1022.70 1023.03 1023.48 1023.88 1024.53 1025.05 1025.79 1026.91 6999.00
  10  6999.00 1019.87 1020.64 1021.69 1022.47 1023.49 1024.39 1025.46 1027.07 1027.71
  11  6999.00 1015.35 1016.78 1019.32 1020.96 1022.69 1024.22 1026.00 1028.19 6999.00
  12  1001.91 1007.94 1012.08 1016.04 1019.32 1022.30 1024.79 1028.19 1031.18 6999.00
  13   995.56 1000.38 1006.89 1012.87 1018.23 1022.75 1027.05 1031.79 1034.63 6999.00
  14  6999.00 1005.79 1008.88 1013.53 1018.29 1022.70 1027.60 1033.07 1037.48 6999.00
  15  6999.00 6999.00 1012.52 1015.24 1018.71 1021.73 6999.00 6999.00 6999.00 6999.00
1
  VOLUMETRIC BUDGET FOR ENTIRE MODEL AT END OF TIME STEP    1, STRESS PERIOD   2
  ------------------------------------------------------------------------------

     CUMULATIVE VOLUMES      L**3       RATES FOR THIS TIME STEP      L**3/T
     ------------------                 ------------------------

           IN:                                      IN:
           ---                                      ---
             STORAGE     =       66736.4922               STORAGE     =           0.7613
       CONSTANT HEAD     =           0.0000         CONSTANT HEAD     =           0.0000
     HEAD DEP BOUNDS     =       49716.9844       HEAD DEP BOUNDS     =           0.2856
      STREAM LEAKAGE     =     1877049.8750        STREAM LEAKAGE     =          11.2667
        UZF RECHARGE     =       73223.9531          UZF RECHARGE     =           0.0000
               GW ET     =           0.0000                 GW ET     =           0.0000
     SURFACE LEAKAGE     =           0.0000       SURFACE LEAKAGE     =           0.0000
           AG WELLS      =           0.0000             AG WELLS      =           0.0000

                TOTAL IN =     2066727.3750                  TOTAL IN =          12.3136

          OUT:                                     OUT:
          ----                                     ----
             STORAGE     =      159712.3594               STORAGE     =           1.8218
       CONSTANT HEAD     =           0.0000         CONSTANT HEAD     =           0.0000
     HEAD DEP BOUNDS     =       49975.0312       HEAD DEP BOUNDS     =           0.2871
      STREAM LEAKAGE     =     1857065.8750        STREAM LEAKAGE     =          10.2049
        UZF RECHARGE     =           0.0000          UZF RECHARGE     =           0.0000
               GW ET     =           0.0000                 GW ET     =           0.0000
     SURFACE LEAKAGE     =           0.0000       SURFACE LEAKAGE     =           0.0000
           AG WELLS      =           0.0000             AG WELLS      =           0.0000

               TOTAL OUT =     2066753.2500                 TOTAL OUT =          12.3139

                IN - OUT =         -25.8750                  IN - OUT =      -2.9659E-04

     PERCENT DISCREPANCY =          -0.00         PERCENT DISCREPANCY =          -0.00






         TIME SUMMARY AT END OF TIME STEP    1 IN STRESS PERIOD    2
                    SECONDS     MINUTES      HOURS       DAYS        YEARS
                    -----------------------------------------------------------
   TIME STEP LENGTH  87667.      1461.1      24.352      1.0147     2.77799E-03
 STRESS PERIOD TIME  87667.      1461.1      24.352      1.0147     2.77799E-03
         TOTAL TIME 1.74067E+05  2901.1      48.352      2.0147     5.51584E-03
1
 
 SOLVING FOR HEAD 
                                                   Max.-Head-Change                         Max.-Flux-Residual
  Residual-Control   Outer-Iter.   Inner-Iter.     Column Row Layer    Maximum-Head-Change  Column Row Layer    Maximum-Flux-Residual          L2-NORM 
          0                 1           2             2   13     1       0.4141567829E-02       4   13    1         0.2347411467E+00      0.5289462972E+00
          0                 2           2             4   13     1      -0.3943827278E-03       4   13    1        -0.2322455848E-01      0.5190261337E-01
          0                 3           1             4   13     1       0.2644622852E-04       4   13    1         0.1601220055E-02      0.3472911116E-02

    ------------------------------------------------
       NWT REQUIRED            3 OUTER ITERATIONS 
       AND A TOTAL OF          5 INNER ITERATIONS.
    ------------------------------------------------

 NO OUTPUT CONTROL FOR STRESS PERIOD    2   TIME STEP    2
 
 SOLVING FOR HEAD 
                                                   Max.-Head-Change                         Max.-Flux-Residual
  Residual-Control   Outer-Iter.   Inner-Iter.     Column Row Layer    Maximum-Head-Change  Column Row Layer    Maximum-Flux-Residual          L2-NORM 
          0                 1           2             2   13     1       0.3838338935E-02       2   13    1         0.2157833925E+00      0.5018930631E+00
          0                 2           2             4   13     1      -0.3580945565E-03       4   13    1        -0.2107562551E-01      0.4933920941E-01
          0                 3           1             4   13     1       0.2402229969E-04       4   13    1         0.1453618458E-02      0.3374738389E-02

    ------------------------------------------------
       NWT REQUIRED            3 OUTER ITERATIONS 
       AND A TOTAL OF          5 INNER ITERATIONS.
    ------------------------------------------------

 NO OUTPUT CONTROL FOR STRESS PERIOD    2   TIME STEP    3
 
 SOLVING FOR HEAD 
                                                   Max.-Head-Change                         Max.-Flux-Residual
  Residual-Control   Outer-Iter.   Inner-Iter.     Column Row Layer    Maximum-Head-Change  Column Row Layer    Maximum-Flux-Residual          L2-NORM 
          0                 1           2             2   13     1       0.3557560576E-02       2   13    1         0.1999768282E+00      0.4775492249E+00
          0                 2           2             2   13     1      -0.3313340027E-03       2   13    1        -0.1914539807E-01      0.4698968496E-01
          0                 3           1             4   13     1       0.2180655103E-04       4   13    1         0.1318746366E-02      0.3217628859E-02

    ------------------------------------------------
       NWT REQUIRED            3 OUTER ITERATIONS 
       AND A TOTAL OF          5 INNER ITERATIONS.
    ------------------------------------------------

 NO OUTPUT CONTROL FOR STRESS PERIOD    2   TIME STEP    4
 
 SOLVING FOR HEAD 
                                                   Max.-Head-Change                         Max.-Flux-Residual
  Residual-Control   Outer-Iter.   Inner-Iter.     Column Row Layer    Maximum-Head-Change  Column Row Layer    Maximum-Flux-Residual          L2-NORM 
          0                 1           2             2   13     1       0.3297603159E-02       2   13    1         0.1853434576E+00      0.4556429483E+00
          0                 2           2             2    2     1      -0.3075700819E-03       2   13    1        -0.1774982624E-01      0.4487597735E-01
          0                 3           1             2    2     1       0.2094437799E-04       4   13    1         0.1198295056E-02      0.3077367678E-02

    ------------------------------------------------
       NWT REQUIRED            3 OUTER ITERATIONS 
       AND A TOTAL OF          5 INNER ITERATIONS.
    ------------------------------------------------

 NO OUTPUT CONTROL FOR STRESS PERIOD    2   TIME STEP    5
 
 SOLVING FOR HEAD 
                                                   Max.-Head-Change                         Max.-Flux-Residual
  Residual-Control   Outer-Iter.   Inner-Iter.     Column Row Layer    Maximum-Head-Change  Column Row Layer    Maximum-Flux-Residual          L2-NORM 
          0                 1           2             2    2     1       0.3137740510E-02       2   13    1         0.1717990377E+00      0.4359297600E+00
          0                 2           2             2    2     1      -0.3052170236E-03       2   13    1        -0.1645826353E-01      0.4296862532E-01
          0                 3           1             2    2     1       0.2078414356E-04       2    2    1         0.1148336450E-02      0.2951048207E-02

    ------------------------------------------------
       NWT REQUIRED            3 OUTER ITERATIONS 
       AND A TOTAL OF          5 INNER ITERATIONS.
    ------------------------------------------------

 NO OUTPUT CONTROL FOR STRESS PERIOD    2   TIME STEP    6
 
 SOLVING FOR HEAD 
                                                   Max.-Head-Change                         Max.-Flux-Residual
  Residual-Control   Outer-Iter.   Inner-Iter.     Column Row Layer    Maximum-Head-Change  Column Row Layer    Maximum-Flux-Residual          L2-NORM 
          0                 1           2             2    2     1       0.3113901317E-02       2    2    1         0.1627934642E+00      0.4182075210E+00
          0                 2           2             2    2     1      -0.3028981112E-03       2    2    1        -0.1627937468E-01      0.4126783402E-01
          0                 3           1             2    2     1       0.2062623468E-04       2    2    1         0.1139556463E-02      0.2836956743E-02

    ------------------------------------------------
       NWT REQUIRED            3 OUTER ITERATIONS 
       AND A TOTAL OF          5 INNER ITERATIONS.
    ------------------------------------------------

 NO OUTPUT CONTROL FOR STRESS PERIOD    2   TIME STEP    7
 
 SOLVING FOR HEAD 
                                                   Max.-Head-Change                         Max.-Flux-Residual
  Residual-Control   Outer-Iter.   Inner-Iter.     Column Row Layer    Maximum-Head-Change  Column Row Layer    Maximum-Flux-Residual          L2-NORM 
          0                 1           2             2    2     1       0.3090495649E-02       2    2    1         0.1615619587E+00      0.4022468357E+00
          0                 2           2             2    2     1      -0.3006213691E-03       2    2    1        -0.1615622356E-01      0.3973034171E-01
          0                 3           1             2    2     1       0.2047119641E-04       2    2    1         0.1130935869E-02      0.2735582411E-02

    ------------------------------------------------
       NWT REQUIRED            3 OUTER ITERATIONS 
       AND A TOTAL OF          5 INNER ITERATIONS.
    ------------------------------------------------

 NO OUTPUT CONTROL FOR STRESS PERIOD    2   TIME STEP    8
 
 SOLVING FOR HEAD 
                                                   Max.-Head-Change                         Max.-Flux-Residual
  Residual-Control   Outer-Iter.   Inner-Iter.     Column Row Layer    Maximum-Head-Change  Column Row Layer    Maximum-Flux-Residual          L2-NORM 
          0                 1           2             2    2     1       0.3067343331E-02       2    2    1         0.1603438671E+00      0.3878723919E+00
          0                 2           2             2    2     1      -0.2983692713E-03       2    2    1        -0.1603441384E-01      0.3834575442E-01
          0                 3           1             2    2     1       0.2031783733E-04       2    2    1         0.1122409198E-02      0.2643308574E-02

    ------------------------------------------------
       NWT REQUIRED            3 OUTER ITERATIONS 
       AND A TOTAL OF          5 INNER ITERATIONS.
    ------------------------------------------------

 NO OUTPUT CONTROL FOR STRESS PERIOD    2   TIME STEP    9
 
 SOLVING FOR HEAD 
                                                   Max.-Head-Change                         Max.-Flux-Residual
  Residual-Control   Outer-Iter.   Inner-Iter.     Column Row Layer    Maximum-Head-Change  Column Row Layer    Maximum-Flux-Residual          L2-NORM 
          0                 1           2             2    2     1       0.3044526558E-02       2    2    1         0.1591434435E+00      0.3749208043E+00
          0                 2           2             2    2     1      -0.2961498132E-03       2    2    1        -0.1591437092E-01      0.3709864994E-01
          0                 3           1             2    2     1       0.2016670038E-04       2    2    1         0.1114006197E-02      0.2560663195E-02

    ------------------------------------------------
       NWT REQUIRED            3 OUTER ITERATIONS 
       AND A TOTAL OF          5 INNER ITERATIONS.
    ------------------------------------------------

 NO OUTPUT CONTROL FOR STRESS PERIOD    2   TIME STEP   10
 
 SOLVING FOR HEAD 
                                                   Max.-Head-Change                         Max.-Flux-Residual
  Residual-Control   Outer-Iter.   Inner-Iter.     Column Row Layer    Maximum-Head-Change  Column Row Layer    Maximum-Flux-Residual          L2-NORM 
          0                 1           2             2    2     1       0.3021953127E-02       2    2    1         0.1579558851E+00      0.3632354482E+00
          0                 2           2             2    2     1      -0.2939540259E-03       2    2    1        -0.1579561455E-01      0.3597230015E-01
          0                 3           1             2    2     1       0.2001717589E-04       2    2    1         0.1105693255E-02      0.2484789175E-02

    ------------------------------------------------
       NWT REQUIRED            3 OUTER ITERATIONS 
       AND A TOTAL OF          5 INNER ITERATIONS.
    ------------------------------------------------

 NO OUTPUT CONTROL FOR STRESS PERIOD    2   TIME STEP   11
 
 SOLVING FOR HEAD 
                                                   Max.-Head-Change                         Max.-Flux-Residual
  Residual-Control   Outer-Iter.   Inner-Iter.     Column Row Layer    Maximum-Head-Change  Column Row Layer    Maximum-Flux-Residual          L2-NORM 
          0                 1           2             2    2     1       0.2999790138E-02       2    2    1         0.1567898857E+00      0.3526763226E+00
          0                 2           2             2    2     1      -0.2917981636E-03       2    2    1        -0.1567901409E-01      0.3495527879E-01
          0                 3           1             2    2     1       0.1987036959E-04       2    2    1         0.1097531223E-02      0.2417538698E-02

    ------------------------------------------------
       NWT REQUIRED            3 OUTER ITERATIONS 
       AND A TOTAL OF          5 INNER ITERATIONS.
    ------------------------------------------------

 NO OUTPUT CONTROL FOR STRESS PERIOD    2   TIME STEP   12
 
 SOLVING FOR HEAD 
                                                   Max.-Head-Change                         Max.-Flux-Residual
  Residual-Control   Outer-Iter.   Inner-Iter.     Column Row Layer    Maximum-Head-Change  Column Row Layer    Maximum-Flux-Residual          L2-NORM 
          0                 1           2             2    2     1       0.2977862084E-02       2    2    1         0.1556363479E+00      0.3431300208E+00
          0                 2           2             2    2     1      -0.2896651535E-03       2    2    1        -0.1556365978E-01      0.3403436794E-01
          0                 3           1             2    2     1       0.1972511942E-04       2    2    1         0.1089456414E-02      0.2356534371E-02

    ------------------------------------------------
       NWT REQUIRED            3 OUTER ITERATIONS 
       AND A TOTAL OF          5 INNER ITERATIONS.
    ------------------------------------------------

 NO OUTPUT CONTROL FOR STRESS PERIOD    2   TIME STEP   13
 
 SOLVING FOR HEAD 
                                                   Max.-Head-Change                         Max.-Flux-Residual
  Residual-Control   Outer-Iter.   Inner-Iter.     Column Row Layer    Maximum-Head-Change  Column Row Layer    Maximum-Flux-Residual          L2-NORM 
          0                 1           2             2    2     1       0.2956249550E-02       2    2    1         0.1544994010E+00      0.3344791056E+00
          0                 2           2             2    2     1      -0.2875628368E-03       2    2    1        -0.1544996463E-01      0.3319850755E-01
          0                 3           1             2    2     1       0.1958195931E-04       2    2    1         0.1081497764E-02      0.2301383782E-02

    ------------------------------------------------
       NWT REQUIRED            3 OUTER ITERATIONS 
       AND A TOTAL OF          5 INNER ITERATIONS.
    ------------------------------------------------

 NO OUTPUT CONTROL FOR STRESS PERIOD    2   TIME STEP   14
 
 SOLVING FOR HEAD 
                                                   Max.-Head-Change                         Max.-Flux-Residual
  Residual-Control   Outer-Iter.   Inner-Iter.     Column Row Layer    Maximum-Head-Change  Column Row Layer    Maximum-Flux-Residual          L2-NORM 
          0                 1           2             2    2     1       0.2934947023E-02       2    2    1         0.1533788134E+00      0.3266298030E+00
          0                 2           2             2    2     1      -0.2854906742E-03       2    2    1        -0.1533790538E-01      0.3244365653E-01
          0                 3           1             2    2     1       0.1944085281E-04       2    2    1         0.1073653616E-02      0.2250867102E-02

    ------------------------------------------------
       NWT REQUIRED            3 OUTER ITERATIONS 
       AND A TOTAL OF          5 INNER ITERATIONS.
    ------------------------------------------------

 NO OUTPUT CONTROL FOR STRESS PERIOD    2   TIME STEP   15
 
 SOLVING FOR HEAD 
                                                   Max.-Head-Change                         Max.-Flux-Residual
  Residual-Control   Outer-Iter.   Inner-Iter.     Column Row Layer    Maximum-Head-Change  Column Row Layer    Maximum-Flux-Residual          L2-NORM 
          0                 1           2             2    2     1       0.2913949801E-02       2    2    1         0.1522742994E+00      0.3194856918E+00
          0                 2           2             2    2     1      -0.2834482098E-03       2    2    1        -0.1522745350E-01      0.3175100896E-01
          0                 3           1             2    2     1       0.1930176892E-04       2    2    1         0.1065921982E-02      0.2204628142E-02

    ------------------------------------------------
       NWT REQUIRED            3 OUTER ITERATIONS 
       AND A TOTAL OF          5 INNER ITERATIONS.
    ------------------------------------------------

 NO OUTPUT CONTROL FOR STRESS PERIOD    2   TIME STEP   16
 
 SOLVING FOR HEAD 
                                                   Max.-Head-Change                         Max.-Flux-Residual
  Residual-Control   Outer-Iter.   Inner-Iter.     Column Row Layer    Maximum-Head-Change  Column Row Layer    Maximum-Flux-Residual          L2-NORM 
          0                 1           2             2    2     1       0.2893252902E-02       2    2    1         0.1511856151E+00      0.3129776772E+00
          0                 2           2             2    2     1      -0.2814349584E-03       2    2    1        -0.1511858460E-01      0.3112435695E-01
          0                 3           1             2    2     1       0.1916467356E-04       2    2    1         0.1058301142E-02      0.2162705682E-02

    ------------------------------------------------
       NWT REQUIRED            3 OUTER ITERATIONS 
       AND A TOTAL OF          5 INNER ITERATIONS.
    ------------------------------------------------

 NO OUTPUT CONTROL FOR STRESS PERIOD    2   TIME STEP   17
 
 SOLVING FOR HEAD 
                                                   Max.-Head-Change                         Max.-Flux-Residual
  Residual-Control   Outer-Iter.   Inner-Iter.     Column Row Layer    Maximum-Head-Change  Column Row Layer    Maximum-Flux-Residual          L2-NORM 
          0                 1           2             2    2     1       0.2872764718E-02       2    2    1         0.1501079693E+00      0.3070295779E+00
          0                 2           2             2    2     1      -0.2794420110E-03       2    2    1        -0.1501081961E-01      0.3054914228E-01
          0                 3           1             2    2     1       0.1902896203E-04       2    2    1         0.1050757625E-02      0.2124245493E-02

    ------------------------------------------------
       NWT REQUIRED            3 OUTER ITERATIONS 
       AND A TOTAL OF          5 INNER ITERATIONS.
    ------------------------------------------------

 NO OUTPUT CONTROL FOR STRESS PERIOD    2   TIME STEP   18
 
 SOLVING FOR HEAD 
                                                   Max.-Head-Change                         Max.-Flux-Residual
  Residual-Control   Outer-Iter.   Inner-Iter.     Column Row Layer    Maximum-Head-Change  Column Row Layer    Maximum-Flux-Residual          L2-NORM 
          0                 1           2             2    2     1       0.2852655321E-02       2    2    1         0.1490502110E+00      0.3015723893E+00
          0                 2           2             2    2     1      -0.2774859081E-03       2    2    1        -0.1490504333E-01      0.3001308054E-01
          0                 3           1             2    2     1       0.1889575829E-04       2    2    1         0.1043353275E-02      0.2088221353E-02

    ------------------------------------------------
       NWT REQUIRED            3 OUTER ITERATIONS 
       AND A TOTAL OF          5 INNER ITERATIONS.
    ------------------------------------------------

 NO OUTPUT CONTROL FOR STRESS PERIOD    2   TIME STEP   19
 
 SOLVING FOR HEAD 
                                                   Max.-Head-Change                         Max.-Flux-Residual
  Residual-Control   Outer-Iter.   Inner-Iter.     Column Row Layer    Maximum-Head-Change  Column Row Layer    Maximum-Flux-Residual          L2-NORM 
          0                 1           2             2    2     1       0.2832745079E-02       2    2    1         0.1480030265E+00      0.2965746176E+00
          0                 2           2             2    2     1      -0.2755491782E-03       2    2    1        -0.1480032446E-01      0.2953618109E-01
          0                 3           1             2    2     1       0.1876387424E-04       2    2    1         0.1036022952E-02      0.2056153671E-02

    ------------------------------------------------
       NWT REQUIRED            3 OUTER ITERATIONS 
       AND A TOTAL OF          5 INNER ITERATIONS.
    ------------------------------------------------

 NO OUTPUT CONTROL FOR STRESS PERIOD    2   TIME STEP   20
 
 SOLVING FOR HEAD 
                                                   Max.-Head-Change                         Max.-Flux-Residual
  Residual-Control   Outer-Iter.   Inner-Iter.     Column Row Layer    Maximum-Head-Change  Column Row Layer    Maximum-Flux-Residual          L2-NORM 
          0                 1           2             2    2     1       0.2813117513E-02       2    2    1         0.1469707009E+00      0.2919610593E+00
          0                 2           2             2    2     1      -0.2736399446E-03       2    2    1        -0.1469709147E-01      0.2908855442E-01
          0                 3           1             2    2     1       0.1863386275E-04       2    2    1         0.1028796640E-02      0.2026683242E-02

    ------------------------------------------------
       NWT REQUIRED            3 OUTER ITERATIONS 
       AND A TOTAL OF          5 INNER ITERATIONS.
    ------------------------------------------------

 NO OUTPUT CONTROL FOR STRESS PERIOD    2   TIME STEP   21
 
 SOLVING FOR HEAD 
                                                   Max.-Head-Change                         Max.-Flux-Residual
  Residual-Control   Outer-Iter.   Inner-Iter.     Column Row Layer    Maximum-Head-Change  Column Row Layer    Maximum-Flux-Residual          L2-NORM 
          0                 1           2             2    2     1       0.2793767698E-02       2    2    1         0.1459530318E+00      0.2876971088E+00
          0                 2           2             2    2     1      -0.2717577292E-03       2    2    1        -0.1459532415E-01      0.2867435166E-01
          0                 3           1             2    2     1       0.1850569092E-04       2    2    1         0.1021672937E-02      0.1998437461E-02

    ------------------------------------------------
       NWT REQUIRED            3 OUTER ITERATIONS 
       AND A TOTAL OF          5 INNER ITERATIONS.
    ------------------------------------------------

 NO OUTPUT CONTROL FOR STRESS PERIOD    2   TIME STEP   22
 
 SOLVING FOR HEAD 
                                                   Max.-Head-Change                         Max.-Flux-Residual
  Residual-Control   Outer-Iter.   Inner-Iter.     Column Row Layer    Maximum-Head-Change  Column Row Layer    Maximum-Flux-Residual          L2-NORM 
          0                 1           2             2    2     1       0.2774691482E-02       2    2    1         0.1449497637E+00      0.2837509583E+00
          0                 2           2             2    2     1      -0.2699021276E-03       2    2    1        -0.1449499694E-01      0.2828998630E-01
          0                 3           1             2    2     1       0.1837933153E-04       2    2    1         0.1014650039E-02      0.1972687640E-02

    ------------------------------------------------
       NWT REQUIRED            3 OUTER ITERATIONS 
       AND A TOTAL OF          5 INNER ITERATIONS.
    ------------------------------------------------

 NO OUTPUT CONTROL FOR STRESS PERIOD    2   TIME STEP   23
 
 SOLVING FOR HEAD 
                                                   Max.-Head-Change                         Max.-Flux-Residual
  Residual-Control   Outer-Iter.   Inner-Iter.     Column Row Layer    Maximum-Head-Change  Column Row Layer    Maximum-Flux-Residual          L2-NORM 
          0                 1           2             2    2     1       0.2755889506E-02       2    2    1         0.1439609271E+00      0.2800871321E+00
          0                 2           2             2    2     1      -0.2680732023E-03       2    2    1        -0.1439611290E-01      0.2793342822E-01
          0                 3           1             2    2     1       0.1825478814E-04       2    2    1         0.1007728147E-02      0.1948876106E-02

    ------------------------------------------------
       NWT REQUIRED            3 OUTER ITERATIONS 
       AND A TOTAL OF          5 INNER ITERATIONS.
    ------------------------------------------------

 NO OUTPUT CONTROL FOR STRESS PERIOD    2   TIME STEP   24
 
 SOLVING FOR HEAD 
                                                   Max.-Head-Change                         Max.-Flux-Residual
  Residual-Control   Outer-Iter.   Inner-Iter.     Column Row Layer    Maximum-Head-Change  Column Row Layer    Maximum-Flux-Residual          L2-NORM 
          0                 1           2             2    2     1       0.2737260862E-02       2    2    1         0.1429812849E+00      0.2766709804E+00
          0                 2           2             2    2     1      -0.2662611375E-03       2    2    1        -0.1429814831E-01      0.2759991350E-01
          0                 3           1             2    2     1       0.1813139356E-04       2    2    1         0.1000870625E-02      0.1925838917E-02

    ------------------------------------------------
       NWT REQUIRED            3 OUTER ITERATIONS 
       AND A TOTAL OF          5 INNER ITERATIONS.
    ------------------------------------------------

 NO OUTPUT CONTROL FOR STRESS PERIOD    2   TIME STEP   25
 
 SOLVING FOR HEAD 
                                                   Max.-Head-Change                         Max.-Flux-Residual
  Residual-Control   Outer-Iter.   Inner-Iter.     Column Row Layer    Maximum-Head-Change  Column Row Layer    Maximum-Flux-Residual          L2-NORM 
          0                 1           2             2    2     1       0.2718893457E-02       2    2    1         0.1420154088E+00      0.2734794250E+00
          0                 2           2             2    2     1      -0.2644744838E-03       2    2    1        -0.1420156031E-01      0.2728812394E-01
          0                 3           1             2    2     1       0.1800972858E-04       2    2    1         0.9941094490E-03      0.1904832915E-02

    ------------------------------------------------
       NWT REQUIRED            3 OUTER ITERATIONS 
       AND A TOTAL OF          5 INNER ITERATIONS.
    ------------------------------------------------

 NO OUTPUT CONTROL FOR STRESS PERIOD    2   TIME STEP   26
 
 SOLVING FOR HEAD 
                                                   Max.-Head-Change                         Max.-Flux-Residual
  Residual-Control   Outer-Iter.   Inner-Iter.     Column Row Layer    Maximum-Head-Change  Column Row Layer    Maximum-Flux-Residual          L2-NORM 
          0                 1           2             2    2     1       0.2700870188E-02       2    2    1         0.1410676114E+00      0.2704895005E+00
          0                 2           2             2    2     1      -0.2627213064E-03       2    2    1        -0.1410678023E-01      0.2699536118E-01
          0                 3           1             2    2     1       0.1789034443E-04       2    2    1         0.9874748744E-03      0.1885006744E-02

    ------------------------------------------------
       NWT REQUIRED            3 OUTER ITERATIONS 
       AND A TOTAL OF          5 INNER ITERATIONS.
    ------------------------------------------------

 NO OUTPUT CONTROL FOR STRESS PERIOD    2   TIME STEP   27
 
 SOLVING FOR HEAD 
                                                   Max.-Head-Change                         Max.-Flux-Residual
  Residual-Control   Outer-Iter.   Inner-Iter.     Column Row Layer    Maximum-Head-Change  Column Row Layer    Maximum-Flux-Residual          L2-NORM 
          0                 1           2             2    2     1       0.2683013105E-02       2    2    1         0.1401285895E+00      0.2676811076E+00
          0                 2           2             2    2     1      -0.2609842935E-03       2    2    1        -0.1401287769E-01      0.2672016137E-01
          0                 3           1             2    2     1       0.1777206034E-04       2    2    1         0.9809016886E-03      0.1865878571E-02

    ------------------------------------------------
       NWT REQUIRED            3 OUTER ITERATIONS 
       AND A TOTAL OF          5 INNER ITERATIONS.
    ------------------------------------------------

 NO OUTPUT CONTROL FOR STRESS PERIOD    2   TIME STEP   28
 
 SOLVING FOR HEAD 
                                                   Max.-Head-Change                         Max.-Flux-Residual
  Residual-Control   Outer-Iter.   Inner-Iter.     Column Row Layer    Maximum-Head-Change  Column Row Layer    Maximum-Flux-Residual          L2-NORM 
          0                 1           2             2    2     1       0.2665405197E-02       2    2    1         0.1392027181E+00      0.2650364322E+00
          0                 2           2             2    2     1      -0.2592715192E-03       2    2    1        -0.1392029019E-01      0.2645959411E-01
          0                 3           1             2    2     1       0.1765542680E-04       2    2    1         0.9744205665E-03      0.1847101114E-02

    ------------------------------------------------
       NWT REQUIRED            3 OUTER ITERATIONS 
       AND A TOTAL OF          5 INNER ITERATIONS.
    ------------------------------------------------

 NO OUTPUT CONTROL FOR STRESS PERIOD    2   TIME STEP   29
 
 SOLVING FOR HEAD 
                                                   Max.-Head-Change                         Max.-Flux-Residual
  Residual-Control   Outer-Iter.   Inner-Iter.     Column Row Layer    Maximum-Head-Change  Column Row Layer    Maximum-Flux-Residual          L2-NORM 
          0                 1           2             2    2     1       0.2648042823E-02       2    2    1         0.1382897661E+00      0.2625379534E+00
          0                 2           2             2    2     1      -0.2575826289E-03       2    2    1        -0.1382899468E-01      0.2621543762E-01
          0                 3           1             2    2     1       0.1754041969E-04       2    2    1         0.9680298790E-03      0.1831627680E-02

    ------------------------------------------------
       NWT REQUIRED            3 OUTER ITERATIONS 
       AND A TOTAL OF          5 INNER ITERATIONS.
    ------------------------------------------------

 NO OUTPUT CONTROL FOR STRESS PERIOD    2   TIME STEP   30



 STREAM LISTING     PERIOD      2   STEP       30

 LAYER ROW COL. STREAM  RCH.  FLOW INTO     FLOW TO   FLOW OUT OF   OVRLND.     DIRECT     STREAM       STREAM     STREAM     STREAM   STREAMBED  STREAMBED
                SEG.NO.  NO.  STRM. RCH.    AQUIFER    STRM. RCH.    RUNOFF     PRECIP       ET          HEAD       DEPTH      WIDTH   CONDCTNC.   GRADIENT

   1    1    1     1     1    1.6500E+01  1.9759E-01   1.6302E+01  0.000E+00  0.000E+00  0.000E+00  1.09409E+03  1.039E+00  1.087E+01  4.893E-02  1.346E+00
   1    2    2     1     2    1.6302E+01  3.0466E-01   1.5998E+01  0.000E+00  0.000E+00  0.000E+00  1.08909E+03  1.034E+00  1.079E+01  7.552E-02  1.345E+00
   1    3    3     1     3    1.5998E+01  2.5853E-01   1.5739E+01  0.000E+00  0.000E+00  0.000E+00  1.08345E+03  1.029E+00  1.070E+01  6.417E-02  1.343E+00
   1    3    4     1     4    1.5739E+01  2.3700E-01   1.5502E+01  0.000E+00  0.000E+00  0.000E+00  1.07843E+03  1.024E+00  1.061E+01  5.889E-02  1.341E+00
   1    4    5     2     1    1.3502E+01  2.9865E-01   1.3204E+01  0.000E+00  0.000E+00  0.000E+00  1.07276E+03  8.289E-01  1.200E+01  7.800E-02  1.276E+00
   1    5    6     2     2    1.3204E+01  2.2914E-01   1.2974E+01  0.000E+00  0.000E+00  0.000E+00  1.06733E+03  8.190E-01  1.200E+01  6.000E-02  1.273E+00
   1    6    6     2     3    1.2974E+01  2.2862E-01   1.2746E+01  0.000E+00  0.000E+00  0.000E+00  1.06260E+03  8.104E-01  1.200E+01  6.000E-02  1.270E+00
   1    7    6     2     4    1.2746E+01  2.2810E-01   1.2518E+01  0.000E+00  0.000E+00  0.000E+00  1.05788E+03  8.017E-01  1.200E+01  6.000E-02  1.267E+00
   1    8    6     2     5    1.2518E+01  2.2758E-01   1.2290E+01  0.000E+00  0.000E+00  0.000E+00  1.05315E+03  7.930E-01  1.200E+01  6.000E-02  1.264E+00
   1    3    5     3     1    2.0000E+00  2.8252E-01   1.7175E+00  0.000E+00  0.000E+00  0.000E+00  1.07555E+03  1.909E+00  9.636E+00  7.227E-02  1.955E+00
   1    3    6     3     2    1.7175E+00  2.4905E-01   1.4684E+00  0.000E+00  0.000E+00  0.000E+00  1.07264E+03  1.727E+00  8.909E+00  6.682E-02  1.864E+00
   1    3    7     3     3    1.4684E+00  1.9718E-01   1.2712E+00  0.000E+00  0.000E+00  0.000E+00  1.06987E+03  1.555E+00  8.218E+00  5.547E-02  1.777E+00
   1    4    8     3     4    1.2712E+00  2.2567E-01   1.0456E+00  0.000E+00  0.000E+00  0.000E+00  1.06682E+03  1.364E+00  7.455E+00  6.709E-02  1.682E+00
   1    5    8     3     5    1.0456E+00  1.5790E-01   8.8768E-01  0.000E+00  0.000E+00  0.000E+00  1.06362E+03  1.164E+00  6.655E+00  4.991E-02  1.582E+00
   1    6    8     3     6    8.8768E-01  5.5980E-02   8.3170E-01  0.000E+00  0.000E+00  0.000E+00  1.06158E+03  1.036E+00  6.145E+00  1.844E-02  1.518E+00
   1    5   10     4     1    1.0000E+01  9.0919E-02   9.9091E+00  0.000E+00  0.000E+00  0.000E+00  1.07836E+03  6.368E-01  1.000E+01  2.500E-02  1.212E+00
   1    5    9     4     2    9.9091E+00  1.8158E-01   9.7275E+00  0.000E+00  0.000E+00  0.000E+00  1.07154E+03  6.315E-01  1.000E+01  5.000E-02  1.211E+00
   1    6    8     4     3    9.7275E+00  1.2689E-01   9.6006E+00  0.000E+00  0.000E+00  0.000E+00  1.06381E+03  6.256E-01  1.000E+01  3.500E-02  1.209E+00
   1    6    8     5     1    1.0432E+01  2.2686E-01   1.0205E+01  0.000E+00  0.000E+00  0.000E+00  1.05868E+03  6.790E-01  1.542E+01  6.166E-02  1.226E+00
   1    7    7     5     2    1.0205E+01  2.7894E-01   9.9265E+00  0.000E+00  0.000E+00  0.000E+00  1.05417E+03  6.732E-01  1.519E+01  7.594E-02  1.224E+00
   1    8    7     5     3    9.9265E+00  1.9221E-01   9.7343E+00  0.000E+00  0.000E+00  0.000E+00  1.04992E+03  6.676E-01  1.497E+01  5.241E-02  1.223E+00
   1    8    6     5     4    9.7343E+00  1.3577E-01   9.5985E+00  0.000E+00  0.000E+00  0.000E+00  1.04691E+03  6.637E-01  1.482E+01  3.706E-02  1.221E+00
   1    9    6     6     1    2.1889E+01  2.4742E-01   2.1641E+01  0.000E+00  0.000E+00  0.000E+00  1.04385E+03  1.124E+00  1.200E+01  6.000E-02  1.375E+00
   1   10    7     6     2    2.1641E+01  2.4696E-01   2.1394E+01  0.000E+00  0.000E+00  0.000E+00  1.03930E+03  1.116E+00  1.200E+01  6.000E-02  1.372E+00
   1   11    7     6     3    2.1394E+01  2.4650E-01   2.1148E+01  0.000E+00  0.000E+00  0.000E+00  1.03474E+03  1.108E+00  1.200E+01  6.000E-02  1.369E+00
   1   12    7     6     4    2.1148E+01  2.4603E-01   2.0902E+01  0.000E+00  0.000E+00  0.000E+00  1.03019E+03  1.101E+00  1.200E+01  6.000E-02  1.367E+00
   1   13    7     6     5    2.0902E+01 -1.7643E-02   2.0919E+01  0.000E+00  0.000E+00  0.000E+00  1.02701E+03  1.097E+00  1.200E+01  2.400E-01 -2.450E-02
   1   14    9     7     1    1.5000E+02  1.3345E+00   1.4867E+02  0.000E+00  0.000E+00  0.000E+00  1.03987E+03  2.288E+00  5.529E+01  5.593E-01  7.953E-01
   1   13    8     7     2    1.4867E+02  1.8340E+00   1.4683E+02  0.000E+00  0.000E+00  0.000E+00  1.03478E+03  2.279E+00  5.526E+01  6.148E-01  9.944E-01
   1   13    7     7     3    1.4683E+02  1.4577E+00   1.4537E+02  0.000E+00  0.000E+00  0.000E+00  1.02969E+03  2.271E+00  5.522E+01  5.585E-01  8.701E-01
   1   13    6     8     1    1.6629E+02  8.7801E-01   1.6542E+02  0.000E+00  0.000E+00  0.000E+00  1.02480E+03  2.925E+00  4.241E+01  4.322E-01  6.772E-01
   1   13    5     8     2    1.6542E+02  1.3043E-01   1.6528E+02  0.000E+00  0.000E+00  0.000E+00  1.01855E+03  2.922E+00  4.236E+01  4.317E-01  1.007E-01
   1   13    4     8     3    1.6528E+02 -2.6018E+00   1.6789E+02  0.000E+00  0.000E+00  0.000E+00  1.01230E+03  2.930E+00  4.248E+01  4.329E+00 -2.003E-01
   1   13    3     8     4    1.6789E+02 -3.7076E+00   1.7159E+02  0.000E+00  0.000E+00  0.000E+00  1.00608E+03  2.951E+00  4.278E+01  4.360E+00 -2.835E-01
   1   13    2     8     5    1.7159E+02 -2.5608E+00   1.7416E+02  0.000E+00  0.000E+00  0.000E+00  9.99846E+02  2.971E+00  4.308E+01  4.390E+00 -1.945E-01
   1   13    1     8     6    1.7416E+02 -1.9439E+00   1.7610E+02  0.000E+00  0.000E+00  0.000E+00  9.94860E+02  2.985E+00  4.329E+01  2.647E+00 -2.448E-01
   1    8    6     9     1    0.0000E+00  0.0000E+00   0.0000E+00  0.000E+00  0.000E+00  0.000E+00  1.07875E+03  0.000E+00  4.000E+00  0.000E+00  1.000E+00
   1    8    5     9     2    0.0000E+00  0.0000E+00   0.0000E+00  0.000E+00  0.000E+00  0.000E+00  1.07825E+03  0.000E+00  4.000E+00  0.000E+00  1.000E+00





UNSATURATED ZONE PACKAGE VOLUMETRIC BUDGET FOR  TIME STEP    30 STRESS PERIOD    2
  ------------------------------------------------------------------------------



     CUMULATIVE VOLUMES      L**3       RATES FOR THIS TIME STEP      L**3/T
     ------------------                 ------------------------

           IN:                                      IN:
           ---                                      ---
        INFILTRATION =     2302148.8727          INFILTRATION =           0.8475

          OUT:                                     OUT:
          ----                                     ----
              UZF ET =     1972484.1996                UZF ET =           0.7500
        UZF RECHARGE =       73224.0000          UZF RECHARGE =       0.0000E+00

            IN - OUT =      256440.6732              IN - OUT =       9.7500E-02

          STORAGE:                                 STORAGE:
          --------                                 --------
      STORAGE CHANGE =      256440.6944        STORAGE CHANGE =       9.7500E-02

 PERCENT DISCREPANCY IS DIFFERENCE BETWEEN IN-OUT MINUS CHANGE IN STORAGE
 DIVIDED BY THE AVERAGE OF IN AND OUT TIMES 100

 PERCENT DISCREPANCY =          -0.00     PERCENT DISCREPANCY =           0.00






1
  VOLUMETRIC BUDGET FOR AGRICULTURAL FIELDS AT  END OF TIME STEP   30, STRESS PERIOD   2
  ------------------------------------------------------------------------------

     CUMULATIVE VOLUMES      L**3       RATES FOR THIS TIME STEP      L**3/T
     ------------------                 ------------------------

           IN:                                      IN:
           ---                                      ---
               AG WELLS  =           0.0000                 AG WELLS  =           0.0000
      DIVERSION SEGMENTS =           0.0000        DIVERSION SEGMENTS =           0.0000
       IRRIGATION PONDS  =           0.0000         IRRIGATION PONDS  =           0.0000
           GW IRRIGATION =           0.0000             GW IRRIGATION =           0.0000
           SW IRRIGATION =           0.0000             SW IRRIGATION =           0.0000
        SYSTEM LOSSES GW =           0.0000          SYSTEM LOSSES GW =           0.0000
        SYSTEM LOSSES SW =           0.0000          SYSTEM LOSSES SW =           0.0000

                TOTAL IN =           0.0000                  TOTAL IN =           0.0000

          OUT:                                     OUT:
          ----                                     ----
               AG WELLS  =           0.0000                 AG WELLS  =           0.0000
      DIVERSION SEGMENTS =           0.0000        DIVERSION SEGMENTS =           0.0000
       IRRIGATION PONDS  =           0.0000         IRRIGATION PONDS  =           0.0000
           GW IRRIGATION =           0.0000             GW IRRIGATION =           0.0000
           SW IRRIGATION =           0.0000             SW IRRIGATION =           0.0000
        SYSTEM LOSSES GW =           0.0000          SYSTEM LOSSES GW =           0.0000
        SYSTEM LOSSES SW =           0.0000          SYSTEM LOSSES SW =           0.0000

               TOTAL OUT =           0.0000                 TOTAL OUT =           0.0000

                IN - OUT =           0.0000                  IN - OUT =           0.0000

     PERCENT DISCREPANCY =           0.00         PERCENT DISCREPANCY =           0.00



1
  VOLUMETRIC BUDGET FOR ENTIRE MODEL AT END OF TIME STEP   30, STRESS PERIOD   2
  ------------------------------------------------------------------------------

     CUMULATIVE VOLUMES      L**3       RATES FOR THIS TIME STEP      L**3/T
     ------------------                 ------------------------

           IN:                                      IN:
           ---                                      ---
             STORAGE     =     1717158.0000               STORAGE     =           0.5919
       CONSTANT HEAD     =           0.0000         CONSTANT HEAD     =           0.0000
     HEAD DEP BOUNDS     =      775921.8750       HEAD DEP BOUNDS     =           0.2857
      STREAM LEAKAGE     =    30472192.0000        STREAM LEAKAGE     =          11.2329
        UZF RECHARGE     =       73223.9531          UZF RECHARGE     =           0.0000
               GW ET     =           0.0000                 GW ET     =           0.0000
     SURFACE LEAKAGE     =           0.0000       SURFACE LEAKAGE     =           0.0000
           AG WELLS      =           0.0000             AG WELLS      =           0.0000

                TOTAL IN =    33038496.0000                  TOTAL IN =          12.1105

          OUT:                                     OUT:
          ----                                     ----
             STORAGE     =     3367966.7500               STORAGE     =           0.9902
       CONSTANT HEAD     =           0.0000         CONSTANT HEAD     =           0.0000
     HEAD DEP BOUNDS     =      782283.9375       HEAD DEP BOUNDS     =           0.2886
      STREAM LEAKAGE     =    28888702.0000        STREAM LEAKAGE     =          10.8318
        UZF RECHARGE     =           0.0000          UZF RECHARGE     =           0.0000
               GW ET     =           0.0000                 GW ET     =           0.0000
     SURFACE LEAKAGE     =           0.0000       SURFACE LEAKAGE     =           0.0000
           AG WELLS      =           0.0000             AG WELLS      =           0.0000

               TOTAL OUT =    33038952.0000                 TOTAL OUT =          12.1106

                IN - OUT =        -456.0000                  IN - OUT =      -1.1063E-04

     PERCENT DISCREPANCY =          -0.00         PERCENT DISCREPANCY =          -0.00






         TIME SUMMARY AT END OF TIME STEP   30 IN STRESS PERIOD    2
                    SECONDS     MINUTES      HOURS       DAYS        YEARS
                    -----------------------------------------------------------
   TIME STEP LENGTH  87667.      1461.1      24.352      1.0147     2.77799E-03
 STRESS PERIOD TIME 2.63000E+06  43833.      730.56      30.440     8.33397E-02
         TOTAL TIME 2.71640E+06  45273.      754.56      31.440     8.60775E-02
1
1
                            STRESS PERIOD NO.    3, LENGTH =   2630000.    
                            -----------------------------------------------

                              NUMBER OF TIME STEPS =    30

                               MULTIPLIER FOR DELT =     1.000

                            INITIAL TIME STEP SIZE =   87666.66    

 REUSING NON-PARAMETER GHB CELLS FROM LAST STRESS PERIOD

      2 GHB CELLS

 REUSING STREAM SEGMENT DATA FROM LAST STRESS PERIOD



            AREAL INFILTRATION RATE
 READING ON UNIT   19 WITH FORMAT: (FREE)              

            1           2           3           4           5           6           7           8           9          10
 ........................................................................................................................
   1   1.0000E-10  2.0000E-10   0.000       0.000       0.000       0.000       0.000       0.000       0.000       0.000    
   2   2.0000E-10  1.0000E-10  2.0000E-10   0.000       0.000      8.0000E-10  8.0000E-10  5.0000E-10   0.000       0.000    
   3    0.000      5.0000E-10  1.0000E-10  1.0000E-10  8.0000E-10  8.0000E-10  5.0000E-10  5.0000E-10   0.000       0.000    
   4   8.0000E-10  5.0000E-10  1.0000E-10  1.0000E-10  1.0000E-10  1.0000E-10  1.0000E-10  1.0000E-10  2.0000E-10   0.000    
   5   8.0000E-10  5.0000E-10  1.0000E-10  1.0000E-10  1.0000E-10  1.0000E-10  1.0000E-10  1.0000E-10  1.0000E-10  1.0000E-10
   6   8.0000E-10  5.0000E-10  5.0000E-10  2.0000E-10  2.0000E-10  1.0000E-10  1.0000E-10  1.0000E-10  1.0000E-10  5.0000E-10
   7   8.0000E-10  5.0000E-10  5.0000E-10  2.0000E-10  2.0000E-10  1.0000E-10  1.0000E-10  2.0000E-10  2.0000E-10   0.000    
   8    0.000      5.0000E-10  5.0000E-10  2.0000E-10  2.0000E-10  1.0000E-10  1.0000E-10  2.0000E-10  5.0000E-10   0.000    
   9    0.000      5.0000E-10  5.0000E-10  2.0000E-10  2.0000E-10  1.0000E-10  1.0000E-10  2.0000E-10  5.0000E-10   0.000    
  10    0.000      5.0000E-10  5.0000E-10  2.0000E-10  2.0000E-10  1.0000E-10  1.0000E-10  2.0000E-10  5.0000E-10  8.0000E-10
  11    0.000      1.0000E-10  1.0000E-10  1.0000E-10  1.0000E-10  1.0000E-10  1.0000E-10  2.0000E-10  5.0000E-10   0.000    
  12   1.0000E-10  1.0000E-10  1.0000E-10  1.0000E-10  1.0000E-10  1.0000E-10  1.0000E-10  1.0000E-10  2.0000E-10   0.000    
  13   1.0000E-10  1.0000E-10  2.0000E-10  2.0000E-10  2.0000E-10  2.0000E-10  2.0000E-10  1.0000E-10  1.0000E-10   0.000    
  14    0.000      2.0000E-10  5.0000E-10  5.0000E-10  5.0000E-10  5.0000E-10  5.0000E-10  2.0000E-10  1.0000E-10   0.000    
  15    0.000       0.000      8.0000E-10  8.0000E-10  8.0000E-10  8.0000E-10   0.000       0.000       0.000       0.000    

                  ET RATE =  5.000000E-10

 USING ET EXTINCTION DEPTH FROM PREVIOUS STRESS PERIOD. CURRENT PERIOD IS:       3

 USING EXTINCTION WATER CONTENT FROM PREVIOUS STRESS PERIOD. CURRENT PERIOD IS:       3

 USING AIR ENTRY PRESSURE FROM PREVIOUS STRESS PERIOD. CURRENT PERIOD IS:       3

 USING ROOT PRESSURE HEAD FROM PREVIOUS STRESS PERIOD. CURRENT PERIOD IS:       3

 USING ROOT ACTIVITY FROM PREVIOUS STRESS PERIOD. CURRENT PERIOD IS:       3

 PROCESSING AG STRESS PERIOD DATA

 READING AG STRESS PERIOD DATA

 READING IRRIGATION SEGMENT

 READING IRRIGATION WELL

 READING SUPPLEMENTAL WELL

 NO IRRPOND OR REUSING IRRPOND DATA FROM LAST STRESS PERIOD

 END PROCESSING AG STRESS PERIOD DATA OPTIONS
 
 SOLVING FOR HEAD 
                                                   Max.-Head-Change                         Max.-Flux-Residual
  Residual-Control   Outer-Iter.   Inner-Iter.     Column Row Layer    Maximum-Head-Change  Column Row Layer    Maximum-Flux-Residual          L2-NORM 
          0                 1           2             2    2     1       0.3921641502E-02       2    2    1         0.2048605772E+00      0.4998721792E+00
          0                 2           2             7   13     1      -0.6931962764E-03       7   13    1        -0.3837505641E-01      0.6128806198E-01
          0                 3           1             7   13     1       0.4719325130E-04       7   13    1         0.2685655209E-02      0.4240005798E-02

    ------------------------------------------------
       NWT REQUIRED            3 OUTER ITERATIONS 
       AND A TOTAL OF          5 INNER ITERATIONS.
    ------------------------------------------------

 NO OUTPUT CONTROL FOR STRESS PERIOD    3   TIME STEP    1
 
 SOLVING FOR HEAD 
                                                   Max.-Head-Change                         Max.-Flux-Residual
  Residual-Control   Outer-Iter.   Inner-Iter.     Column Row Layer    Maximum-Head-Change  Column Row Layer    Maximum-Flux-Residual          L2-NORM 
          0                 1           2             2   13     1       0.5737845648E-02       4   13    1         0.3262446722E+00      0.7450792259E+00
          0                 2           2             4   13     1      -0.5480857925E-03       4   13    1        -0.3228377861E-01      0.7315695521E-01
          0                 3           1             4   13     1       0.3677466679E-04       4   13    1         0.2227053900E-02      0.4995345420E-02

    ------------------------------------------------
       NWT REQUIRED            3 OUTER ITERATIONS 
       AND A TOTAL OF          5 INNER ITERATIONS.
    ------------------------------------------------

 NO OUTPUT CONTROL FOR STRESS PERIOD    3   TIME STEP    2
 
 SOLVING FOR HEAD 
                                                   Max.-Head-Change                         Max.-Flux-Residual
  Residual-Control   Outer-Iter.   Inner-Iter.     Column Row Layer    Maximum-Head-Change  Column Row Layer    Maximum-Flux-Residual          L2-NORM 
          0                 1           2             2   13     1       0.5310460796E-02       2   13    1         0.2989810456E+00      0.7084678737E+00
          0                 2           2             4   13     1      -0.4975464708E-03       4   13    1        -0.2928655917E-01      0.6963326787E-01
          0                 3           1             4   13     1       0.3335593238E-04       4   13    1         0.2018575286E-02      0.4760377661E-02

    ------------------------------------------------
       NWT REQUIRED            3 OUTER ITERATIONS 
       AND A TOTAL OF          5 INNER ITERATIONS.
    ------------------------------------------------

 NO OUTPUT CONTROL FOR STRESS PERIOD    3   TIME STEP    3
 
 SOLVING FOR HEAD 
                                                   Max.-Head-Change                         Max.-Flux-Residual
  Residual-Control   Outer-Iter.   Inner-Iter.     Column Row Layer    Maximum-Head-Change  Column Row Layer    Maximum-Flux-Residual          L2-NORM 
          0                 1           2             2   13     1       0.4915353577E-02       2   13    1         0.2767016626E+00      0.6757133827E+00
          0                 2           2             2    2     1      -0.4665860196E-03       4   13    1        -0.2658701694E-01      0.6648434402E-01
          0                 3           1             2    2     1       0.3177276925E-04       4   13    1         0.1834034501E-02      0.4552893793E-02

    ------------------------------------------------
       NWT REQUIRED            3 OUTER ITERATIONS 
       AND A TOTAL OF          5 INNER ITERATIONS.
    ------------------------------------------------

 NO OUTPUT CONTROL FOR STRESS PERIOD    3   TIME STEP    4
 
 SOLVING FOR HEAD 
                                                   Max.-Head-Change                         Max.-Flux-Residual
  Residual-Control   Outer-Iter.   Inner-Iter.     Column Row Layer    Maximum-Head-Change  Column Row Layer    Maximum-Flux-Residual          L2-NORM 
          0                 1           2             2    2     1       0.4764248236E-02       2   13    1         0.2561081952E+00      0.6464234646E+00
          0                 2           2             2    2     1      -0.4634323554E-03       2    2    1        -0.2488671866E-01      0.6366999779E-01
          0                 3           1             2    2     1       0.3155801689E-04       2    2    1         0.1742070505E-02      0.4366222635E-02

    ------------------------------------------------
       NWT REQUIRED            3 OUTER ITERATIONS 
       AND A TOTAL OF          5 INNER ITERATIONS.
    ------------------------------------------------

 NO OUTPUT CONTROL FOR STRESS PERIOD    3   TIME STEP    5
 
 SOLVING FOR HEAD 
                                                   Max.-Head-Change                         Max.-Flux-Residual
  Residual-Control   Outer-Iter.   Inner-Iter.     Column Row Layer    Maximum-Head-Change  Column Row Layer    Maximum-Flux-Residual          L2-NORM 
          0                 1           2             2    2     1       0.4732201090E-02       2    2    1         0.2471810677E+00      0.6202315041E+00
          0                 2           2             2    2     1      -0.4603150240E-03       2    2    1        -0.2471816644E-01      0.6115451744E-01
          0                 3           1             2    2     1       0.3134573801E-04       2    2    1         0.1730271840E-02      0.4199830375E-02

    ------------------------------------------------
       NWT REQUIRED            3 OUTER ITERATIONS 
       AND A TOTAL OF          5 INNER ITERATIONS.
    ------------------------------------------------

 NO OUTPUT CONTROL FOR STRESS PERIOD    3   TIME STEP    6
 
 SOLVING FOR HEAD 
                                                   Max.-Head-Change                         Max.-Flux-Residual
  Residual-Control   Outer-Iter.   Inner-Iter.     Column Row Layer    Maximum-Head-Change  Column Row Layer    Maximum-Flux-Residual          L2-NORM 
          0                 1           2             2    2     1       0.4700607100E-02       2    2    1         0.2455194587E+00      0.5968157567E+00
          0                 2           2             2    2     1      -0.4572417737E-03       2    2    1        -0.2455200444E-01      0.5890944021E-01
          0                 3           1             2    2     1       0.3113646109E-04       2    2    1         0.1718640493E-02      0.4051915775E-02

    ------------------------------------------------
       NWT REQUIRED            3 OUTER ITERATIONS 
       AND A TOTAL OF          5 INNER ITERATIONS.
    ------------------------------------------------

 NO OUTPUT CONTROL FOR STRESS PERIOD    3   TIME STEP    7
 
 SOLVING FOR HEAD 
                                                   Max.-Head-Change                         Max.-Flux-Residual
  Residual-Control   Outer-Iter.   Inner-Iter.     Column Row Layer    Maximum-Head-Change  Column Row Layer    Maximum-Flux-Residual          L2-NORM 
          0                 1           2             2    2     1       0.4669459330E-02       2    2    1         0.2438813453E+00      0.5758716148E+00
          0                 2           2             2    2     1      -0.4542119284E-03       2    2    1        -0.2438819200E-01      0.5689783947E-01
          0                 3           1             2    2     1       0.3093014022E-04       2    2    1         0.1707173636E-02      0.3919374583E-02

    ------------------------------------------------
       NWT REQUIRED            3 OUTER ITERATIONS 
       AND A TOTAL OF          5 INNER ITERATIONS.
    ------------------------------------------------

 NO OUTPUT CONTROL FOR STRESS PERIOD    3   TIME STEP    8
 
 SOLVING FOR HEAD 
                                                   Max.-Head-Change                         Max.-Flux-Residual
  Residual-Control   Outer-Iter.   Inner-Iter.     Column Row Layer    Maximum-Head-Change  Column Row Layer    Maximum-Flux-Residual          L2-NORM 
          0                 1           2             2    2     1       0.4638750574E-02       2    2    1         0.2422663680E+00      0.5571328478E+00
          0                 2           2             2    2     1      -0.4512247875E-03       2    2    1        -0.2422669320E-01      0.5510162395E-01
          0                 3           1             2    2     1       0.3072672640E-04       2    2    1         0.1695868711E-02      0.3801093543E-02

    ------------------------------------------------
       NWT REQUIRED            3 OUTER ITERATIONS 
       AND A TOTAL OF          5 INNER ITERATIONS.
    ------------------------------------------------

 NO OUTPUT CONTROL FOR STRESS PERIOD    3   TIME STEP    9
 
 SOLVING FOR HEAD 
                                                   Max.-Head-Change                         Max.-Flux-Residual
  Residual-Control   Outer-Iter.   Inner-Iter.     Column Row Layer    Maximum-Head-Change  Column Row Layer    Maximum-Flux-Residual          L2-NORM 
          0                 1           2             2    2     1       0.4608474110E-02       2    2    1         0.2406741530E+00      0.5403539997E+00
          0                 2           2             2    2     1      -0.4482796976E-03       2    2    1        -0.2406747069E-01      0.5349367576E-01
          0                 3           1             2    2     1       0.3052617728E-04       2    2    1         0.1684723136E-02      0.3695130248E-02

    ------------------------------------------------
       NWT REQUIRED            3 OUTER ITERATIONS 
       AND A TOTAL OF          5 INNER ITERATIONS.
    ------------------------------------------------

 NO OUTPUT CONTROL FOR STRESS PERIOD    3   TIME STEP   10
 
 SOLVING FOR HEAD 
                                                   Max.-Head-Change                         Max.-Flux-Residual
  Residual-Control   Outer-Iter.   Inner-Iter.     Column Row Layer    Maximum-Head-Change  Column Row Layer    Maximum-Flux-Residual          L2-NORM 
          0                 1           2             2    2     1       0.4578536215E-02       2    2    1         0.2390998165E+00      0.5253120928E+00
          0                 2           2             2    2     1      -0.4453675420E-03       2    2    1        -0.2391003603E-01      0.5205007738E-01
          0                 3           1             2    2     1       0.3032787040E-04       2    2    1         0.1673702728E-02      0.3599354641E-02

    ------------------------------------------------
       NWT REQUIRED            3 OUTER ITERATIONS 
       AND A TOTAL OF          5 INNER ITERATIONS.
    ------------------------------------------------

 NO OUTPUT CONTROL FOR STRESS PERIOD    3   TIME STEP   11
 
 SOLVING FOR HEAD 
                                                   Max.-Head-Change                         Max.-Flux-Residual
  Residual-Control   Outer-Iter.   Inner-Iter.     Column Row Layer    Maximum-Head-Change  Column Row Layer    Maximum-Flux-Residual          L2-NORM 
          0                 1           2             2    2     1       0.4549017488E-02       2    2    1         0.2375475697E+00      0.5118075127E+00
          0                 2           2             2    2     1      -0.4424961597E-03       2    2    1        -0.2375481035E-01      0.5075409265E-01
          0                 3           1             2    2     1       0.3013233994E-04       2    2    1         0.1662836943E-02      0.3513223928E-02

    ------------------------------------------------
       NWT REQUIRED            3 OUTER ITERATIONS 
       AND A TOTAL OF          5 INNER ITERATIONS.
    ------------------------------------------------

 NO OUTPUT CONTROL FOR STRESS PERIOD    3   TIME STEP   12
 
 SOLVING FOR HEAD 
                                                   Max.-Head-Change                         Max.-Flux-Residual
  Residual-Control   Outer-Iter.   Inner-Iter.     Column Row Layer    Maximum-Head-Change  Column Row Layer    Maximum-Flux-Residual          L2-NORM 
          0                 1           2             2    2     1       0.4519911600E-02       2    2    1         0.2360170563E+00      0.4996668411E+00
          0                 2           2             2    2     1      -0.4396649360E-03       2    2    1        -0.2360175806E-01      0.4958896320E-01
          0                 3           1             2    2     1       0.2993954447E-04       2    2    1         0.1652123290E-02      0.3436751239E-02

    ------------------------------------------------
       NWT REQUIRED            3 OUTER ITERATIONS 
       AND A TOTAL OF          5 INNER ITERATIONS.
    ------------------------------------------------

 NO OUTPUT CONTROL FOR STRESS PERIOD    3   TIME STEP   13
 
 SOLVING FOR HEAD 
                                                   Max.-Head-Change                         Max.-Flux-Residual
  Residual-Control   Outer-Iter.   Inner-Iter.     Column Row Layer    Maximum-Head-Change  Column Row Layer    Maximum-Flux-Residual          L2-NORM 
          0                 1           2             2    2     1       0.4491211897E-02       2    2    1         0.2345079483E+00      0.4887379538E+00
          0                 2           2             2    2     1      -0.4368732230E-03       2    2    1        -0.2345084631E-01      0.4853926222E-01
          0                 3           1             2    2     1       0.2974943927E-04       2    2    1         0.1641559451E-02      0.3366787428E-02

    ------------------------------------------------
       NWT REQUIRED            3 OUTER ITERATIONS 
       AND A TOTAL OF          5 INNER ITERATIONS.
    ------------------------------------------------

 NO OUTPUT CONTROL FOR STRESS PERIOD    3   TIME STEP   14
 
 SOLVING FOR HEAD 
                                                   Max.-Head-Change                         Max.-Flux-Residual
  Residual-Control   Outer-Iter.   Inner-Iter.     Column Row Layer    Maximum-Head-Change  Column Row Layer    Maximum-Flux-Residual          L2-NORM 
          0                 1           2             2    2     1       0.4462825499E-02       2    2    1         0.2330153643E+00      0.4788722806E+00
          0                 2           2             2    2     1      -0.4341119867E-03       2    2    1        -0.2330158701E-01      0.4759151430E-01
          0                 3           1             2    2     1       0.2956140922E-04       2    2    1         0.1631111312E-02      0.3304033094E-02

    ------------------------------------------------
       NWT REQUIRED            3 OUTER ITERATIONS 
       AND A TOTAL OF          5 INNER ITERATIONS.
    ------------------------------------------------

 NO OUTPUT CONTROL FOR STRESS PERIOD    3   TIME STEP   15
 
 SOLVING FOR HEAD 
                                                   Max.-Head-Change                         Max.-Flux-Residual
  Residual-Control   Outer-Iter.   Inner-Iter.     Column Row Layer    Maximum-Head-Change  Column Row Layer    Maximum-Flux-Residual          L2-NORM 
          0                 1           2             2    2     1       0.4434833424E-02       2    2    1         0.2315435608E+00      0.4699388097E+00
          0                 2           2             2    2     1      -0.4313891078E-03       2    2    1        -0.2315440577E-01      0.4673202448E-01
          0                 3           1             2    2     1       0.2937599133E-04       2    2    1         0.1620808620E-02      0.3247035242E-02

    ------------------------------------------------
       NWT REQUIRED            3 OUTER ITERATIONS 
       AND A TOTAL OF          5 INNER ITERATIONS.
    ------------------------------------------------

 NO OUTPUT CONTROL FOR STRESS PERIOD    3   TIME STEP   16
 
 SOLVING FOR HEAD 
                                                   Max.-Head-Change                         Max.-Flux-Residual
  Residual-Control   Outer-Iter.   Inner-Iter.     Column Row Layer    Maximum-Head-Change  Column Row Layer    Maximum-Flux-Residual          L2-NORM 
          0                 1           2             2    2     1       0.4407229753E-02       2    2    1         0.2300922026E+00      0.4618383430E+00
          0                 2           2             2    2     1      -0.4287040100E-03       2    2    1        -0.2300926905E-01      0.4595286382E-01
          0                 3           1             2    2     1       0.2919314679E-04       2    2    1         0.1610649084E-02      0.3195395498E-02

    ------------------------------------------------
       NWT REQUIRED            3 OUTER ITERATIONS 
       AND A TOTAL OF          5 INNER ITERATIONS.
    ------------------------------------------------

 NO OUTPUT CONTROL FOR STRESS PERIOD    3   TIME STEP   17
 
 SOLVING FOR HEAD 
                                                   Max.-Head-Change                         Max.-Flux-Residual
  Residual-Control   Outer-Iter.   Inner-Iter.     Column Row Layer    Maximum-Head-Change  Column Row Layer    Maximum-Flux-Residual          L2-NORM 
          0                 1           2             2    2     1       0.4379997722E-02       2    2    1         0.2286604514E+00      0.4544619460E+00
          0                 2           2             2    2     1      -0.4260550629E-03       2    2    1        -0.2286609308E-01      0.4524096885E-01
          0                 3           1             2    2     1       0.2901276295E-04       2    2    1         0.1600626752E-02      0.3147790500E-02

    ------------------------------------------------
       NWT REQUIRED            3 OUTER ITERATIONS 
       AND A TOTAL OF          5 INNER ITERATIONS.
    ------------------------------------------------

 NO OUTPUT CONTROL FOR STRESS PERIOD    3   TIME STEP   18
 
 SOLVING FOR HEAD 
                                                   Max.-Head-Change                         Max.-Flux-Residual
  Residual-Control   Outer-Iter.   Inner-Iter.     Column Row Layer    Maximum-Head-Change  Column Row Layer    Maximum-Flux-Residual          L2-NORM 
          0                 1           2             2    2     1       0.4353152023E-02       2    2    1         0.2272490320E+00      0.4477426694E+00
          0                 2           2             2    2     1      -0.4234436961E-03       2    2    1        -0.2272495032E-01      0.4459279341E-01
          0                 3           1             2    2     1       0.2883493896E-04       2    2    1         0.1590746757E-02      0.3104969159E-02

    ------------------------------------------------
       NWT REQUIRED            3 OUTER ITERATIONS 
       AND A TOTAL OF          5 INNER ITERATIONS.
    ------------------------------------------------

 NO OUTPUT CONTROL FOR STRESS PERIOD    3   TIME STEP   19
 
 SOLVING FOR HEAD 
                                                   Max.-Head-Change                         Max.-Flux-Residual
  Residual-Control   Outer-Iter.   Inner-Iter.     Column Row Layer    Maximum-Head-Change  Column Row Layer    Maximum-Flux-Residual          L2-NORM 
          0                 1           2             2    2     1       0.4326589986E-02       2    2    1         0.2258525753E+00      0.4415888457E+00
          0                 2           2             2    2     1      -0.4208599218E-03       2    2    1        -0.2258530383E-01      0.4399885768E-01
          0                 3           1             2    2     1       0.2865899392E-04       2    2    1         0.1580971518E-02      0.3065184328E-02

    ------------------------------------------------
       NWT REQUIRED            3 OUTER ITERATIONS 
       AND A TOTAL OF          5 INNER ITERATIONS.
    ------------------------------------------------

 NO OUTPUT CONTROL FOR STRESS PERIOD    3   TIME STEP   20
 
 SOLVING FOR HEAD 
                                                   Max.-Head-Change                         Max.-Flux-Residual
  Residual-Control   Outer-Iter.   Inner-Iter.     Column Row Layer    Maximum-Head-Change  Column Row Layer    Maximum-Flux-Residual          L2-NORM 
          0                 1           2             2    2     1       0.4300479606E-02       2    2    1         0.2244798999E+00      0.4359396426E+00
          0                 2           2             2    2     1      -0.4183200817E-03       2    2    1        -0.2244803548E-01      0.4345143581E-01
          0                 3           1             2    2     1       0.2848604019E-04       2    2    1         0.1571362738E-02      0.3028214582E-02

    ------------------------------------------------
       NWT REQUIRED            3 OUTER ITERATIONS 
       AND A TOTAL OF          5 INNER ITERATIONS.
    ------------------------------------------------

 NO OUTPUT CONTROL FOR STRESS PERIOD    3   TIME STEP   21
 
 SOLVING FOR HEAD 
                                                   Max.-Head-Change                         Max.-Flux-Residual
  Residual-Control   Outer-Iter.   Inner-Iter.     Column Row Layer    Maximum-Head-Change  Column Row Layer    Maximum-Flux-Residual          L2-NORM 
          0                 1           2             2    2     1       0.4274641177E-02       2    2    1         0.2231215685E+00      0.4307385162E+00
          0                 2           2             2    2     1      -0.4158066950E-03       2    2    1        -0.2231220156E-01      0.4294783447E-01
          0                 3           1             2    2     1       0.2831488778E-04       2    2    1         0.1561854342E-02      0.2996596712E-02

    ------------------------------------------------
       NWT REQUIRED            3 OUTER ITERATIONS 
       AND A TOTAL OF          5 INNER ITERATIONS.
    ------------------------------------------------

 NO OUTPUT CONTROL FOR STRESS PERIOD    3   TIME STEP   22
 
 SOLVING FOR HEAD 
                                                   Max.-Head-Change                         Max.-Flux-Residual
  Residual-Control   Outer-Iter.   Inner-Iter.     Column Row Layer    Maximum-Head-Change  Column Row Layer    Maximum-Flux-Residual          L2-NORM 
          0                 1           2             2    2     1       0.4249070062E-02       2    2    1         0.2217773371E+00      0.4259341507E+00
          0                 2           2             2    2     1      -0.4133193116E-03       2    2    1        -0.2217777767E-01      0.4248091076E-01
          0                 3           1             2    2     1       0.2814550617E-04       2    2    1         0.1552444676E-02      0.2963286338E-02

    ------------------------------------------------
       NWT REQUIRED            3 OUTER ITERATIONS 
       AND A TOTAL OF          5 INNER ITERATIONS.
    ------------------------------------------------

 NO OUTPUT CONTROL FOR STRESS PERIOD    3   TIME STEP   23
 
 SOLVING FOR HEAD 
                                                   Max.-Head-Change                         Max.-Flux-Residual
  Residual-Control   Outer-Iter.   Inner-Iter.     Column Row Layer    Maximum-Head-Change  Column Row Layer    Maximum-Flux-Residual          L2-NORM 
          0                 1           2             2    2     1       0.4223934909E-02       2    2    1         0.2204560402E+00      0.4214807155E+00
          0                 2           2             2    2     1      -0.4108743353E-03       2    2    1        -0.2204564723E-01      0.4204772967E-01
          0                 3           1             2    2     1       0.2797901267E-04       2    2    1         0.1543195559E-02      0.2934028696E-02

    ------------------------------------------------
       NWT REQUIRED            3 OUTER ITERATIONS 
       AND A TOTAL OF          5 INNER ITERATIONS.
    ------------------------------------------------

 NO OUTPUT CONTROL FOR STRESS PERIOD    3   TIME STEP   24
 
 SOLVING FOR HEAD 
                                                   Max.-Head-Change                         Max.-Flux-Residual
  Residual-Control   Outer-Iter.   Inner-Iter.     Column Row Layer    Maximum-Head-Change  Column Row Layer    Maximum-Flux-Residual          L2-NORM 
          0                 1           2             2    2     1       0.4199142690E-02       2    2    1         0.2191528102E+00      0.4173409117E+00
          0                 2           2             2    2     1      -0.4084627175E-03       2    2    1        -0.2191532351E-01      0.4164523473E-01
          0                 3           1             2    2     1       0.2781479030E-04       2    2    1         0.1534072893E-02      0.2906864496E-02

    ------------------------------------------------
       NWT REQUIRED            3 OUTER ITERATIONS 
       AND A TOTAL OF          5 INNER ITERATIONS.
    ------------------------------------------------

 NO OUTPUT CONTROL FOR STRESS PERIOD    3   TIME STEP   25
 
 SOLVING FOR HEAD 
                                                   Max.-Head-Change                         Max.-Flux-Residual
  Residual-Control   Outer-Iter.   Inner-Iter.     Column Row Layer    Maximum-Head-Change  Column Row Layer    Maximum-Flux-Residual          L2-NORM 
          0                 1           2             2    2     1       0.4174601143E-02       2    2    1         0.2178628233E+00      0.4134791521E+00
          0                 2           2             2    2     1      -0.4060754836E-03       2    2    1        -0.2178632411E-01      0.4126920458E-01
          0                 3           1             2    2     1       0.2765222866E-04       2    2    1         0.1525042957E-02      0.2881717572E-02

    ------------------------------------------------
       NWT REQUIRED            3 OUTER ITERATIONS 
       AND A TOTAL OF          5 INNER ITERATIONS.
    ------------------------------------------------

 NO OUTPUT CONTROL FOR STRESS PERIOD    3   TIME STEP   26
 
 SOLVING FOR HEAD 
                                                   Max.-Head-Change                         Max.-Flux-Residual
  Residual-Control   Outer-Iter.   Inner-Iter.     Column Row Layer    Maximum-Head-Change  Column Row Layer    Maximum-Flux-Residual          L2-NORM 
          0                 1           2             2    2     1       0.4150392441E-02       2    2    1         0.2165903710E+00      0.4098644831E+00
          0                 2           2             2    2     1      -0.4037206265E-03       2    2    1        -0.2165907819E-01      0.4092614592E-01
          0                 3           1             2    2     1       0.2749187186E-04       2    2    1         0.1516135738E-02      0.2858544735E-02

    ------------------------------------------------
       NWT REQUIRED            3 OUTER ITERATIONS 
       AND A TOTAL OF          5 INNER ITERATIONS.
    ------------------------------------------------

 NO OUTPUT CONTROL FOR STRESS PERIOD    3   TIME STEP   27
 
 SOLVING FOR HEAD 
                                                   Max.-Head-Change                         Max.-Flux-Residual
  Residual-Control   Outer-Iter.   Inner-Iter.     Column Row Layer    Maximum-Head-Change  Column Row Layer    Maximum-Flux-Residual          L2-NORM 
          0                 1           2             2    2     1       0.4126511696E-02       2    2    1         0.2153351764E+00      0.4064678820E+00
          0                 2           2             2    2     1      -0.4013976710E-03       2    2    1        -0.2153355805E-01      0.4058383225E-01
          0                 3           1             2    2     1       0.2733368750E-04       2    2    1         0.1507349338E-02      0.2835326525E-02

    ------------------------------------------------
       NWT REQUIRED            3 OUTER ITERATIONS 
       AND A TOTAL OF          5 INNER ITERATIONS.
    ------------------------------------------------

 NO OUTPUT CONTROL FOR STRESS PERIOD    3   TIME STEP   28
 
 SOLVING FOR HEAD 
                                                   Max.-Head-Change                         Max.-Flux-Residual
  Residual-Control   Outer-Iter.   Inner-Iter.     Column Row Layer    Maximum-Head-Change  Column Row Layer    Maximum-Flux-Residual          L2-NORM 
          0                 1           2             2    2     1       0.4102953735E-02       2    2    1         0.2140969860E+00      0.4032580417E+00
          0                 2           2             2    2     1      -0.3991061138E-03       2    2    1        -0.2140973835E-01      0.4026959030E-01
          0                 3           1             2    2     1       0.2717764100E-04       2    2    1         0.1498681948E-02      0.2813759530E-02

    ------------------------------------------------
       NWT REQUIRED            3 OUTER ITERATIONS 
       AND A TOTAL OF          5 INNER ITERATIONS.
    ------------------------------------------------

 NO OUTPUT CONTROL FOR STRESS PERIOD    3   TIME STEP   29
 
 SOLVING FOR HEAD 
                                                   Max.-Head-Change                         Max.-Flux-Residual
  Residual-Control   Outer-Iter.   Inner-Iter.     Column Row Layer    Maximum-Head-Change  Column Row Layer    Maximum-Flux-Residual          L2-NORM 
          0                 1           2             4   13     1       0.9279380829E-02       4   13    1         0.5331635596E+00      0.1129361597E+01
          0                 2           2             4   13     1      -0.8928533916E-03       4   13    1        -0.5274556194E-01      0.1105070929E+00
          0                 3           1             4   13     1       0.5989141537E-04       4   13    1         0.3637649555E-02      0.7509014219E-02

    ------------------------------------------------
       NWT REQUIRED            3 OUTER ITERATIONS 
       AND A TOTAL OF          5 INNER ITERATIONS.
    ------------------------------------------------

 NO OUTPUT CONTROL FOR STRESS PERIOD    3   TIME STEP   30



 STREAM LISTING     PERIOD      3   STEP       30

 LAYER ROW COL. STREAM  RCH.  FLOW INTO     FLOW TO   FLOW OUT OF   OVRLND.     DIRECT     STREAM       STREAM     STREAM     STREAM   STREAMBED  STREAMBED
                SEG.NO.  NO.  STRM. RCH.    AQUIFER    STRM. RCH.    RUNOFF     PRECIP       ET          HEAD       DEPTH      WIDTH   CONDCTNC.   GRADIENT

   1    1    1     1     1    5.4376E+01  3.5202E-01   5.4024E+01  0.000E+00  0.000E+00  0.000E+00  1.09450E+03  1.455E+00  1.756E+01  7.901E-02  1.485E+00
   1    2    2     1     2    5.4024E+01  5.4505E-01   5.3479E+01  0.000E+00  0.000E+00  0.000E+00  1.08951E+03  1.449E+00  1.750E+01  1.225E-01  1.483E+00
   1    3    3     1     3    5.3479E+01  4.6474E-01   5.3014E+01  0.000E+00  0.000E+00  0.000E+00  1.08386E+03  1.443E+00  1.743E+01  1.046E-01  1.481E+00
   1    3    4     1     4    5.3014E+01  4.2788E-01   5.2587E+01  0.000E+00  0.000E+00  0.000E+00  1.07884E+03  1.437E+00  1.738E+01  9.643E-02  1.479E+00
   1    4    5     2     1    5.0587E+01  3.7745E-01   5.0209E+01  0.000E+00  0.000E+00  0.000E+00  1.07377E+03  1.839E+00  1.200E+01  7.800E-02  1.613E+00
   1    5    6     2     2    5.0209E+01  2.8990E-01   4.9919E+01  0.000E+00  0.000E+00  0.000E+00  1.06834E+03  1.832E+00  1.200E+01  6.000E-02  1.611E+00
   1    6    6     2     3    4.9919E+01  2.8952E-01   4.9630E+01  0.000E+00  0.000E+00  0.000E+00  1.06362E+03  1.825E+00  1.200E+01  6.000E-02  1.608E+00
   1    7    6     2     4    4.9630E+01  2.8914E-01   4.9341E+01  0.000E+00  0.000E+00  0.000E+00  1.05889E+03  1.819E+00  1.200E+01  6.000E-02  1.606E+00
   1    8    6     2     5    4.9341E+01  2.8876E-01   4.9052E+01  0.000E+00  0.000E+00  0.000E+00  1.05417E+03  1.813E+00  1.200E+01  6.000E-02  1.604E+00
   1    3    5     3     1    2.0000E+00  2.8252E-01   1.7175E+00  0.000E+00  0.000E+00  0.000E+00  1.07555E+03  1.909E+00  9.636E+00  7.227E-02  1.955E+00
   1    3    6     3     2    1.7175E+00  2.4905E-01   1.4684E+00  0.000E+00  0.000E+00  0.000E+00  1.07264E+03  1.727E+00  8.909E+00  6.682E-02  1.864E+00
   1    3    7     3     3    1.4684E+00  1.9718E-01   1.2712E+00  0.000E+00  0.000E+00  0.000E+00  1.06987E+03  1.555E+00  8.218E+00  5.547E-02  1.777E+00
   1    4    8     3     4    1.2712E+00  2.2567E-01   1.0456E+00  0.000E+00  0.000E+00  0.000E+00  1.06682E+03  1.364E+00  7.455E+00  6.709E-02  1.682E+00
   1    5    8     3     5    1.0456E+00  1.5790E-01   8.8768E-01  0.000E+00  0.000E+00  0.000E+00  1.06362E+03  1.164E+00  6.655E+00  4.991E-02  1.582E+00
   1    6    8     3     6    8.8768E-01  5.5980E-02   8.3170E-01  0.000E+00  0.000E+00  0.000E+00  1.06158E+03  1.036E+00  6.145E+00  1.844E-02  1.518E+00
   1    5   10     4     1    1.0000E+01  9.0919E-02   9.9091E+00  0.000E+00  0.000E+00  0.000E+00  1.07836E+03  6.368E-01  1.000E+01  2.500E-02  1.212E+00
   1    5    9     4     2    9.9091E+00  1.8158E-01   9.7275E+00  0.000E+00  0.000E+00  0.000E+00  1.07154E+03  6.315E-01  1.000E+01  5.000E-02  1.211E+00
   1    6    8     4     3    9.7275E+00  1.2689E-01   9.6006E+00  0.000E+00  0.000E+00  0.000E+00  1.06381E+03  6.256E-01  1.000E+01  3.500E-02  1.209E+00
   1    6    8     5     1    1.0432E+01  2.2686E-01   1.0205E+01  0.000E+00  0.000E+00  0.000E+00  1.05868E+03  6.790E-01  1.542E+01  6.166E-02  1.226E+00
   1    7    7     5     2    1.0205E+01  2.7894E-01   9.9265E+00  0.000E+00  0.000E+00  0.000E+00  1.05417E+03  6.732E-01  1.519E+01  7.594E-02  1.224E+00
   1    8    7     5     3    9.9265E+00  1.9221E-01   9.7343E+00  0.000E+00  0.000E+00  0.000E+00  1.04992E+03  6.676E-01  1.497E+01  5.241E-02  1.223E+00
   1    8    6     5     4    9.7343E+00  1.3577E-01   9.5985E+00  0.000E+00  0.000E+00  0.000E+00  1.04691E+03  6.637E-01  1.482E+01  3.706E-02  1.221E+00
   1    9    6     6     1    5.8650E+01  3.0201E-01   5.8348E+01  0.000E+00  0.000E+00  0.000E+00  1.04476E+03  2.034E+00  1.200E+01  6.000E-02  1.678E+00
   1   10    7     6     2    5.8348E+01  3.0164E-01   5.8047E+01  0.000E+00  0.000E+00  0.000E+00  1.04021E+03  2.027E+00  1.200E+01  6.000E-02  1.676E+00
   1   11    7     6     3    5.8047E+01  3.0126E-01   5.7745E+01  0.000E+00  0.000E+00  0.000E+00  1.03566E+03  2.021E+00  1.200E+01  6.000E-02  1.674E+00
   1   12    7     6     4    5.7745E+01  3.0088E-01   5.7445E+01  0.000E+00  0.000E+00  0.000E+00  1.03111E+03  2.015E+00  1.200E+01  6.000E-02  1.672E+00
   1   13    7     6     5    5.7445E+01  1.9557E-02   5.7425E+01  0.000E+00  0.000E+00  0.000E+00  1.02792E+03  2.011E+00  1.200E+01  2.400E-02  2.716E-01
   1   14    9     7     1    1.5000E+02  1.3350E+00   1.4866E+02  0.000E+00  0.000E+00  0.000E+00  1.03987E+03  2.288E+00  5.529E+01  5.593E-01  7.957E-01
   1   13    8     7     2    1.4866E+02  1.8309E+00   1.4683E+02  0.000E+00  0.000E+00  0.000E+00  1.03478E+03  2.279E+00  5.526E+01  6.148E-01  9.927E-01
   1   13    7     7     3    1.4683E+02  1.4433E+00   1.4539E+02  0.000E+00  0.000E+00  0.000E+00  1.02969E+03  2.271E+00  5.522E+01  5.585E-01  8.615E-01
   1   13    6     8     1    2.0282E+02  1.0334E+00   2.0178E+02  0.000E+00  0.000E+00  0.000E+00  1.02503E+03  3.151E+00  4.569E+01  4.656E-01  7.398E-01
   1   13    5     8     2    2.0178E+02  2.2869E-01   2.0155E+02  0.000E+00  0.000E+00  0.000E+00  1.01877E+03  3.148E+00  4.564E+01  4.651E-01  1.639E-01
   1   13    4     8     3    2.0155E+02 -2.0703E+00   2.0362E+02  0.000E+00  0.000E+00  0.000E+00  1.01253E+03  3.153E+00  4.572E+01  4.659E+00 -1.481E-01
   1   13    3     8     4    2.0362E+02 -3.2634E+00   2.0689E+02  0.000E+00  0.000E+00  0.000E+00  1.00629E+03  3.168E+00  4.594E+01  4.682E+00 -2.324E-01
   1   13    2     8     5    2.0689E+02 -2.0910E+00   2.0898E+02  0.000E+00  0.000E+00  0.000E+00  1.00006E+03  3.184E+00  4.617E+01  4.704E+00 -1.482E-01
   1   13    1     8     6    2.0898E+02 -1.6691E+00   2.1065E+02  0.000E+00  0.000E+00  0.000E+00  9.95070E+02  3.195E+00  4.632E+01  2.832E+00 -1.964E-01
   1    8    6     9     1    0.0000E+00  0.0000E+00   0.0000E+00  0.000E+00  0.000E+00  0.000E+00  1.07875E+03  0.000E+00  4.000E+00  0.000E+00  1.000E+00
   1    8    5     9     2    0.0000E+00  0.0000E+00   0.0000E+00  0.000E+00  0.000E+00  0.000E+00  1.07825E+03  0.000E+00  4.000E+00  0.000E+00  1.000E+00





UNSATURATED ZONE PACKAGE VOLUMETRIC BUDGET FOR  TIME STEP    30 STRESS PERIOD    3
  ------------------------------------------------------------------------------



     CUMULATIVE VOLUMES      L**3       RATES FOR THIS TIME STEP      L**3/T
     ------------------                 ------------------------

           IN:                                      IN:
           ---                                      ---
        INFILTRATION =     4531073.7455          INFILTRATION =           0.8475

          OUT:                                     OUT:
          ----                                     ----
              UZF ET =     3944984.0541                UZF ET =           0.7500
        UZF RECHARGE =       73224.0000          UZF RECHARGE =       0.0000E+00

            IN - OUT =      512865.6913              IN - OUT =       9.7500E-02

          STORAGE:                                 STORAGE:
          --------                                 --------
      STORAGE CHANGE =      512865.7354        STORAGE CHANGE =       9.7500E-02

 PERCENT DISCREPANCY IS DIFFERENCE BETWEEN IN-OUT MINUS CHANGE IN STORAGE
 DIVIDED BY THE AVERAGE OF IN AND OUT TIMES 100

 PERCENT DISCREPANCY =          -0.00     PERCENT DISCREPANCY =           0.00






1
  VOLUMETRIC BUDGET FOR AGRICULTURAL FIELDS AT  END OF TIME STEP   30, STRESS PERIOD   3
  ------------------------------------------------------------------------------

     CUMULATIVE VOLUMES      L**3       RATES FOR THIS TIME STEP      L**3/T
     ------------------                 ------------------------

           IN:                                      IN:
           ---                                      ---
               AG WELLS  =           0.0000                 AG WELLS  =           0.0000
      DIVERSION SEGMENTS =           0.0000        DIVERSION SEGMENTS =           0.0000
       IRRIGATION PONDS  =           0.0000         IRRIGATION PONDS  =           0.0000
           GW IRRIGATION =           0.0000             GW IRRIGATION =           0.0000
           SW IRRIGATION =           0.0000             SW IRRIGATION =           0.0000
        SYSTEM LOSSES GW =           0.0000          SYSTEM LOSSES GW =           0.0000
        SYSTEM LOSSES SW =           0.0000          SYSTEM LOSSES SW =           0.0000

                TOTAL IN =           0.0000                  TOTAL IN =           0.0000

          OUT:                                     OUT:
          ----                                     ----
               AG WELLS  =           0.0000                 AG WELLS  =           0.0000
      DIVERSION SEGMENTS =           0.0000        DIVERSION SEGMENTS =           0.0000
       IRRIGATION PONDS  =           0.0000         IRRIGATION PONDS  =           0.0000
           GW IRRIGATION =           0.0000             GW IRRIGATION =           0.0000
           SW IRRIGATION =           0.0000             SW IRRIGATION =           0.0000
        SYSTEM LOSSES GW =           0.0000          SYSTEM LOSSES GW =           0.0000
        SYSTEM LOSSES SW =           0.0000          SYSTEM LOSSES SW =           0.0000

               TOTAL OUT =           0.0000                 TOTAL OUT =           0.0000

                IN - OUT =           0.0000                  IN - OUT =           0.0000

     PERCENT DISCREPANCY =           0.00         PERCENT DISCREPANCY =           0.00



1
  VOLUMETRIC BUDGET FOR ENTIRE MODEL AT END OF TIME STEP   30, STRESS PERIOD   3
  ------------------------------------------------------------------------------

     CUMULATIVE VOLUMES      L**3       RATES FOR THIS TIME STEP      L**3/T
     ------------------                 ------------------------

           IN:                                      IN:
           ---                                      ---
             STORAGE     =     3122516.5000               STORAGE     =           0.4872
       CONSTANT HEAD     =           0.0000         CONSTANT HEAD     =           0.0000
     HEAD DEP BOUNDS     =     1527280.1250       HEAD DEP BOUNDS     =           0.2857
      STREAM LEAKAGE     =    61979672.0000        STREAM LEAKAGE     =          12.8226
        UZF RECHARGE     =       73223.9531          UZF RECHARGE     =           0.0000
               GW ET     =           0.0000                 GW ET     =           0.0000
     SURFACE LEAKAGE     =           0.0000       SURFACE LEAKAGE     =           0.0000
           AG WELLS      =           0.0000             AG WELLS      =           0.0000

                TOTAL IN =    66702692.0000                  TOTAL IN =          13.5955

          OUT:                                     OUT:
          ----                                     ----
             STORAGE     =     9107252.0000               STORAGE     =           4.2117
       CONSTANT HEAD     =           0.0000         CONSTANT HEAD     =           0.0000
     HEAD DEP BOUNDS     =     1544993.7500       HEAD DEP BOUNDS     =           0.2910
      STREAM LEAKAGE     =    56052140.0000        STREAM LEAKAGE     =           9.0938
        UZF RECHARGE     =           0.0000          UZF RECHARGE     =           0.0000
               GW ET     =           0.0000                 GW ET     =           0.0000
     SURFACE LEAKAGE     =           0.0000       SURFACE LEAKAGE     =           0.0000
           AG WELLS      =           0.0000             AG WELLS      =           0.0000

               TOTAL OUT =    66704384.0000                 TOTAL OUT =          13.5965

                IN - OUT =       -1692.0000                  IN - OUT =      -1.0567E-03

     PERCENT DISCREPANCY =          -0.00         PERCENT DISCREPANCY =          -0.01






         TIME SUMMARY AT END OF TIME STEP   30 IN STRESS PERIOD    3
                    SECONDS     MINUTES      HOURS       DAYS        YEARS
                    -----------------------------------------------------------
   TIME STEP LENGTH  87667.      1461.1      24.352      1.0147     2.77799E-03
 STRESS PERIOD TIME 2.63000E+06  43833.      730.56      30.440     8.33397E-02
         TOTAL TIME 5.34640E+06  89107.      1485.1      61.880     0.16942    
1
1
                            STRESS PERIOD NO.    4, LENGTH =   2630000.    
                            -----------------------------------------------

                              NUMBER OF TIME STEPS =    30

                               MULTIPLIER FOR DELT =     1.000

                            INITIAL TIME STEP SIZE =   87666.66    

 REUSING NON-PARAMETER GHB CELLS FROM LAST STRESS PERIOD

      2 GHB CELLS

 REUSING STREAM SEGMENT DATA FROM LAST STRESS PERIOD



            AREAL INFILTRATION RATE
 READING ON UNIT   19 WITH FORMAT: (FREE)              

            1           2           3           4           5           6           7           8           9          10
 ........................................................................................................................
   1   1.0000E-10  2.0000E-10   0.000       0.000       0.000       0.000       0.000       0.000       0.000       0.000    
   2   2.0000E-10  1.0000E-10  2.0000E-10   0.000       0.000      8.0000E-10  8.0000E-10  5.0000E-10   0.000       0.000    
   3    0.000      5.0000E-10  1.0000E-10  1.0000E-10  8.0000E-10  8.0000E-10  5.0000E-10  5.0000E-10   0.000       0.000    
   4   8.0000E-10  5.0000E-10  1.0000E-10  1.0000E-10  1.0000E-10  1.0000E-10  1.0000E-10  1.0000E-10  2.0000E-10   0.000    
   5   8.0000E-10  5.0000E-10  1.0000E-10  1.0000E-10  1.0000E-10  1.0000E-10  1.0000E-10  1.0000E-10  1.0000E-10  1.0000E-10
   6   8.0000E-10  5.0000E-10  5.0000E-10  2.0000E-10  2.0000E-10  1.0000E-10  1.0000E-10  1.0000E-10  1.0000E-10  5.0000E-10
   7   8.0000E-10  5.0000E-10  5.0000E-10  2.0000E-10  2.0000E-10  1.0000E-10  1.0000E-10  2.0000E-10  2.0000E-10   0.000    
   8    0.000      5.0000E-10  5.0000E-10  2.0000E-10  2.0000E-10  1.0000E-10  1.0000E-10  2.0000E-10  5.0000E-10   0.000    
   9    0.000      5.0000E-10  5.0000E-10  2.0000E-10  2.0000E-10  1.0000E-10  1.0000E-10  2.0000E-10  5.0000E-10   0.000    
  10    0.000      5.0000E-10  5.0000E-10  2.0000E-10  2.0000E-10  1.0000E-10  1.0000E-10  2.0000E-10  5.0000E-10  8.0000E-10
  11    0.000      1.0000E-10  1.0000E-10  1.0000E-10  1.0000E-10  1.0000E-10  1.0000E-10  2.0000E-10  5.0000E-10   0.000    
  12   1.0000E-10  1.0000E-10  1.0000E-10  1.0000E-10  1.0000E-10  1.0000E-10  1.0000E-10  1.0000E-10  2.0000E-10   0.000    
  13   1.0000E-10  1.0000E-10  2.0000E-10  2.0000E-10  2.0000E-10  2.0000E-10  2.0000E-10  1.0000E-10  1.0000E-10   0.000    
  14    0.000      2.0000E-10  5.0000E-10  5.0000E-10  5.0000E-10  5.0000E-10  5.0000E-10  2.0000E-10  1.0000E-10   0.000    
  15    0.000       0.000      8.0000E-10  8.0000E-10  8.0000E-10  8.0000E-10   0.000       0.000       0.000       0.000    

                  ET RATE =  5.000000E-10

 USING ET EXTINCTION DEPTH FROM PREVIOUS STRESS PERIOD. CURRENT PERIOD IS:       4

 USING EXTINCTION WATER CONTENT FROM PREVIOUS STRESS PERIOD. CURRENT PERIOD IS:       4

 USING AIR ENTRY PRESSURE FROM PREVIOUS STRESS PERIOD. CURRENT PERIOD IS:       4

 USING ROOT PRESSURE HEAD FROM PREVIOUS STRESS PERIOD. CURRENT PERIOD IS:       4

 USING ROOT ACTIVITY FROM PREVIOUS STRESS PERIOD. CURRENT PERIOD IS:       4

 PROCESSING AG STRESS PERIOD DATA

 READING AG STRESS PERIOD DATA

 READING IRRIGATION SEGMENT

 READING IRRIGATION WELL

 READING SUPPLEMENTAL WELL

 NO IRRPOND OR REUSING IRRPOND DATA FROM LAST STRESS PERIOD

 END PROCESSING AG STRESS PERIOD DATA OPTIONS
 
 SOLVING FOR HEAD 
                                                   Max.-Head-Change                         Max.-Flux-Residual
  Residual-Control   Outer-Iter.   Inner-Iter.     Column Row Layer    Maximum-Head-Change  Column Row Layer    Maximum-Flux-Residual          L2-NORM 
          0                 1           2             2   13     1       0.9722703966E-02       4   13    1         0.5574256892E+00      0.1192908810E+01
          0                 2           2             4   13     1      -0.9333092601E-03       4   13    1        -0.5514000867E-01      0.1166978774E+00
          0                 3           1             4   13     1       0.6260032450E-04       4   13    1         0.3802479158E-02      0.7928240575E-02

    ------------------------------------------------
       NWT REQUIRED            3 OUTER ITERATIONS 
       AND A TOTAL OF          5 INNER ITERATIONS.
    ------------------------------------------------

 NO OUTPUT CONTROL FOR STRESS PERIOD    4   TIME STEP    1
 
 SOLVING FOR HEAD 
                                                   Max.-Head-Change                         Max.-Flux-Residual
  Residual-Control   Outer-Iter.   Inner-Iter.     Column Row Layer    Maximum-Head-Change  Column Row Layer    Maximum-Flux-Residual          L2-NORM 
          0                 1           2             2   13     1       0.8971080014E-02       2   13    1         0.5067247173E+00      0.1125587045E+01
          0                 2           2             4   13     1      -0.8448243079E-03       4   13    1        -0.4987499762E-01      0.1102716525E+00
          0                 3           1             4   13     1       0.5665889490E-04       4   13    1         0.3438971144E-02      0.7498544302E-02

    ------------------------------------------------
       NWT REQUIRED            3 OUTER ITERATIONS 
       AND A TOTAL OF          5 INNER ITERATIONS.
    ------------------------------------------------

 NO OUTPUT CONTROL FOR STRESS PERIOD    4   TIME STEP    2
 
 SOLVING FOR HEAD 
                                                   Max.-Head-Change                         Max.-Flux-Residual
  Residual-Control   Outer-Iter.   Inner-Iter.     Column Row Layer    Maximum-Head-Change  Column Row Layer    Maximum-Flux-Residual          L2-NORM 
          0                 1           2             2   13     1       0.8278333198E-02       2   13    1         0.4675367381E+00      0.1065424355E+01
          0                 2           2             2   13     1      -0.7684744001E-03       4   13    1        -0.4514450276E-01      0.1044552390E+00
          0                 3           1             4   13     1       0.5130007573E-04       4   13    1         0.3111359739E-02      0.7117938555E-02

    ------------------------------------------------
       NWT REQUIRED            3 OUTER ITERATIONS 
       AND A TOTAL OF          5 INNER ITERATIONS.
    ------------------------------------------------

 NO OUTPUT CONTROL FOR STRESS PERIOD    4   TIME STEP    3
 
 SOLVING FOR HEAD 
                                                   Max.-Head-Change                         Max.-Flux-Residual
  Residual-Control   Outer-Iter.   Inner-Iter.     Column Row Layer    Maximum-Head-Change  Column Row Layer    Maximum-Flux-Residual          L2-NORM 
          0                 1           2             2   13     1       0.7639702464E-02       2   13    1         0.4314112542E+00      0.1011719234E+01
          0                 2           2             2   13     1      -0.7094718002E-03       2   13    1        -0.4118171115E-01      0.9932629074E-01
          0                 3           1             4   13     1       0.4651721433E-04       4   13    1         0.2819688158E-02      0.6778650958E-02

    ------------------------------------------------
       NWT REQUIRED            3 OUTER ITERATIONS 
       AND A TOTAL OF          5 INNER ITERATIONS.
    ------------------------------------------------

 NO OUTPUT CONTROL FOR STRESS PERIOD    4   TIME STEP    4
 
 SOLVING FOR HEAD 
                                                   Max.-Head-Change                         Max.-Flux-Residual
  Residual-Control   Outer-Iter.   Inner-Iter.     Column Row Layer    Maximum-Head-Change  Column Row Layer    Maximum-Flux-Residual          L2-NORM 
          0                 1           2             2   13     1       0.7051167726E-02       2   13    1         0.3981213426E+00      0.9638328889E+00
          0                 2           2             2   13     1      -0.6550705212E-03       2   13    1        -0.3801827533E-01      0.9472335120E-01
          0                 3           1             2    2     1       0.4352505983E-04       4   13    1         0.2554775088E-02      0.6476279768E-02

    ------------------------------------------------
       NWT REQUIRED            3 OUTER ITERATIONS 
       AND A TOTAL OF          5 INNER ITERATIONS.
    ------------------------------------------------

 NO OUTPUT CONTROL FOR STRESS PERIOD    4   TIME STEP    5
 
 SOLVING FOR HEAD 
                                                   Max.-Head-Change                         Max.-Flux-Residual
  Residual-Control   Outer-Iter.   Inner-Iter.     Column Row Layer    Maximum-Head-Change  Column Row Layer    Maximum-Flux-Residual          L2-NORM 
          0                 1           2             2    2     1       0.6530579353E-02       2   13    1         0.3674363231E+00      0.9211205284E+00
          0                 2           2             2    2     1      -0.6352489020E-03       2   13    1        -0.3510108203E-01      0.9062625932E-01
          0                 3           1             2    2     1       0.4325807936E-04       2    2    1         0.2386429485E-02      0.6204878993E-02

    ------------------------------------------------
       NWT REQUIRED            3 OUTER ITERATIONS 
       AND A TOTAL OF          5 INNER ITERATIONS.
    ------------------------------------------------

 NO OUTPUT CONTROL FOR STRESS PERIOD    4   TIME STEP    6
 
 SOLVING FOR HEAD 
                                                   Max.-Head-Change                         Max.-Flux-Residual
  Residual-Control   Outer-Iter.   Inner-Iter.     Column Row Layer    Maximum-Head-Change  Column Row Layer    Maximum-Flux-Residual          L2-NORM 
          0                 1           2             2    2     1       0.6490745248E-02       2   13    1         0.3391571712E+00      0.8830877688E+00
          0                 2           2             2    2     1      -0.6313741016E-03       2    2    1        -0.3388241576E-01      0.8698733672E-01
          0                 3           1             2    2     1       0.4299422062E-04       2    2    1         0.2371769151E-02      0.5966379631E-02

    ------------------------------------------------
       NWT REQUIRED            3 OUTER ITERATIONS 
       AND A TOTAL OF          5 INNER ITERATIONS.
    ------------------------------------------------

 NO OUTPUT CONTROL FOR STRESS PERIOD    4   TIME STEP    7
 
 SOLVING FOR HEAD 
                                                   Max.-Head-Change                         Max.-Flux-Residual
  Residual-Control   Outer-Iter.   Inner-Iter.     Column Row Layer    Maximum-Head-Change  Column Row Layer    Maximum-Flux-Residual          L2-NORM 
          0                 1           2             2    2     1       0.6451548122E-02       2    2    1         0.3367622971E+00      0.8492152558E+00
          0                 2           2             2    2     1      -0.6275612630E-03       2    2    1        -0.3367633287E-01      0.8374721144E-01
          0                 3           1             2    2     1       0.4273458033E-04       2    2    1         0.2357343348E-02      0.5753048352E-02

    ------------------------------------------------
       NWT REQUIRED            3 OUTER ITERATIONS 
       AND A TOTAL OF          5 INNER ITERATIONS.
    ------------------------------------------------

 NO OUTPUT CONTROL FOR STRESS PERIOD    4   TIME STEP    8
 
 SOLVING FOR HEAD 
                                                   Max.-Head-Change                         Max.-Flux-Residual
  Residual-Control   Outer-Iter.   Inner-Iter.     Column Row Layer    Maximum-Head-Change  Column Row Layer    Maximum-Flux-Residual          L2-NORM 
          0                 1           2             2    2     1       0.6412804842E-02       2    2    1         0.3347254333E+00      0.8190627885E+00
          0                 2           2             2    2     1      -0.6237925715E-03       2    2    1        -0.3347264472E-01      0.8086964342E-01
          0                 3           1             2    2     1       0.4247794675E-04       2    2    1         0.2343085196E-02      0.5567719622E-02

    ------------------------------------------------
       NWT REQUIRED            3 OUTER ITERATIONS 
       AND A TOTAL OF          5 INNER ITERATIONS.
    ------------------------------------------------

 NO OUTPUT CONTROL FOR STRESS PERIOD    4   TIME STEP    9
 
 SOLVING FOR HEAD 
                                                   Max.-Head-Change                         Max.-Flux-Residual
  Residual-Control   Outer-Iter.   Inner-Iter.     Column Row Layer    Maximum-Head-Change  Column Row Layer    Maximum-Flux-Residual          L2-NORM 
          0                 1           2             2    2     1       0.6374594715E-02       2    2    1         0.3327166406E+00      0.7921955221E+00
          0                 2           2             2    2     1      -0.6200757414E-03       2    2    1        -0.3327176370E-01      0.7829858821E-01
          0                 3           1             2    2     1       0.4222484433E-04       2    2    1         0.2329023515E-02      0.5395801903E-02

    ------------------------------------------------
       NWT REQUIRED            3 OUTER ITERATIONS 
       AND A TOTAL OF          5 INNER ITERATIONS.
    ------------------------------------------------

 NO OUTPUT CONTROL FOR STRESS PERIOD    4   TIME STEP   10
 
 SOLVING FOR HEAD 
                                                   Max.-Head-Change                         Max.-Flux-Residual
  Residual-Control   Outer-Iter.   Inner-Iter.     Column Row Layer    Maximum-Head-Change  Column Row Layer    Maximum-Flux-Residual          L2-NORM 
          0                 1           2             2    2     1       0.6336822402E-02       2    2    1         0.3307309510E+00      0.7682465566E+00
          0                 2           2             2    2     1      -0.6164014999E-03       2    2    1        -0.3307319304E-01      0.7600975976E-01
          0                 3           1             2    2     1       0.4197464281E-04       2    2    1         0.2315123596E-02      0.5245152637E-02

    ------------------------------------------------
       NWT REQUIRED            3 OUTER ITERATIONS 
       AND A TOTAL OF          5 INNER ITERATIONS.
    ------------------------------------------------

 NO OUTPUT CONTROL FOR STRESS PERIOD    4   TIME STEP   11
 
 SOLVING FOR HEAD 
                                                   Max.-Head-Change                         Max.-Flux-Residual
  Residual-Control   Outer-Iter.   Inner-Iter.     Column Row Layer    Maximum-Head-Change  Column Row Layer    Maximum-Flux-Residual          L2-NORM 
          0                 1           2             2    2     1       0.6299567450E-02       2    2    1         0.3287725017E+00      0.7468807315E+00
          0                 2           2             2    2     1      -0.6127775841E-03       2    2    1        -0.3287734648E-01      0.7396789209E-01
          0                 3           1             2    2     1       0.4172786738E-04       2    2    1         0.2301414325E-02      0.5111526768E-02

    ------------------------------------------------
       NWT REQUIRED            3 OUTER ITERATIONS 
       AND A TOTAL OF          5 INNER ITERATIONS.
    ------------------------------------------------

 NO OUTPUT CONTROL FOR STRESS PERIOD    4   TIME STEP   12
 
 SOLVING FOR HEAD 
                                                   Max.-Head-Change                         Max.-Flux-Residual
  Residual-Control   Outer-Iter.   Inner-Iter.     Column Row Layer    Maximum-Head-Change  Column Row Layer    Maximum-Flux-Residual          L2-NORM 
          0                 1           2             2    2     1       0.6262821713E-02       2    2    1         0.3268408770E+00      0.7278030743E+00
          0                 2           2             2    2     1      -0.6092032019E-03       2    2    1        -0.3268418240E-01      0.7214327314E-01
          0                 3           1             2    2     1       0.4148446596E-04       2    2    1         0.2287892877E-02      0.4989834979E-02

    ------------------------------------------------
       NWT REQUIRED            3 OUTER ITERATIONS 
       AND A TOTAL OF          5 INNER ITERATIONS.
    ------------------------------------------------

 NO OUTPUT CONTROL FOR STRESS PERIOD    4   TIME STEP   13
 
 SOLVING FOR HEAD 
                                                   Max.-Head-Change                         Max.-Flux-Residual
  Residual-Control   Outer-Iter.   Inner-Iter.     Column Row Layer    Maximum-Head-Change  Column Row Layer    Maximum-Flux-Residual          L2-NORM 
          0                 1           2             2    2     1       0.6226577060E-02       2    2    1         0.3249356545E+00      0.7107307120E+00
          0                 2           2             2    2     1      -0.6056775611E-03       2    2    1        -0.3249365856E-01      0.7051165170E-01
          0                 3           1             2    2     1       0.4124438270E-04       2    2    1         0.2274556187E-02      0.4884078791E-02

    ------------------------------------------------
       NWT REQUIRED            3 OUTER ITERATIONS 
       AND A TOTAL OF          5 INNER ITERATIONS.
    ------------------------------------------------

 NO OUTPUT CONTROL FOR STRESS PERIOD    4   TIME STEP   14
 
 SOLVING FOR HEAD 
                                                   Max.-Head-Change                         Max.-Flux-Residual
  Residual-Control   Outer-Iter.   Inner-Iter.     Column Row Layer    Maximum-Head-Change  Column Row Layer    Maximum-Flux-Residual          L2-NORM 
          0                 1           2             2    2     1       0.6190739070E-02       2    2    1         0.3230518714E+00      0.6954328243E+00
          0                 2           2             2    2     1      -0.6021914790E-03       2    2    1        -0.3230527872E-01      0.6904730912E-01
          0                 3           1             2    2     1       0.4100699396E-04       2    2    1         0.2261369624E-02      0.4787326935E-02

    ------------------------------------------------
       NWT REQUIRED            3 OUTER ITERATIONS 
       AND A TOTAL OF          5 INNER ITERATIONS.
    ------------------------------------------------

 NO OUTPUT CONTROL FOR STRESS PERIOD    4   TIME STEP   15
 
 SOLVING FOR HEAD 
                                                   Max.-Head-Change                         Max.-Flux-Residual
  Residual-Control   Outer-Iter.   Inner-Iter.     Column Row Layer    Maximum-Head-Change  Column Row Layer    Maximum-Flux-Residual          L2-NORM 
          0                 1           2             2    2     1       0.6155387908E-02       2    2    1         0.3211937144E+00      0.6816964855E+00
          0                 2           2             2    2     1      -0.5987527518E-03       2    2    1        -0.3211946150E-01      0.6773243139E-01
          0                 3           1             2    2     1       0.4077282943E-04       2    2    1         0.2248362424E-02      0.4700943042E-02

    ------------------------------------------------
       NWT REQUIRED            3 OUTER ITERATIONS 
       AND A TOTAL OF          5 INNER ITERATIONS.
    ------------------------------------------------

 NO OUTPUT CONTROL FOR STRESS PERIOD    4   TIME STEP   16
 
 SOLVING FOR HEAD 
                                                   Max.-Head-Change                         Max.-Flux-Residual
  Residual-Control   Outer-Iter.   Inner-Iter.     Column Row Layer    Maximum-Head-Change  Column Row Layer    Maximum-Flux-Residual          L2-NORM 
          0                 1           2             2    2     1       0.6120515486E-02       2    2    1         0.3193607989E+00      0.6693410710E+00
          0                 2           2             2    2     1      -0.5953605942E-03       2    2    1        -0.3193616850E-01      0.6654863994E-01
          0                 3           1             2    2     1       0.4054183632E-04       2    2    1         0.2235531923E-02      0.4622405453E-02

    ------------------------------------------------
       NWT REQUIRED            3 OUTER ITERATIONS 
       AND A TOTAL OF          5 INNER ITERATIONS.
    ------------------------------------------------

 NO OUTPUT CONTROL FOR STRESS PERIOD    4   TIME STEP   17
 
 SOLVING FOR HEAD 
                                                   Max.-Head-Change                         Max.-Flux-Residual
  Residual-Control   Outer-Iter.   Inner-Iter.     Column Row Layer    Maximum-Head-Change  Column Row Layer    Maximum-Flux-Residual          L2-NORM 
          0                 1           2             2    2     1       0.6086114633E-02       2    2    1         0.3175527054E+00      0.6581834398E+00
          0                 2           2             2    2     1      -0.5920143074E-03       2    2    1        -0.3175535769E-01      0.6547854493E-01
          0                 3           1             2    2     1       0.4031396705E-04       2    2    1         0.2222875187E-02      0.4553351649E-02

    ------------------------------------------------
       NWT REQUIRED            3 OUTER ITERATIONS 
       AND A TOTAL OF          5 INNER ITERATIONS.
    ------------------------------------------------

 NO OUTPUT CONTROL FOR STRESS PERIOD    4   TIME STEP   18
 
 SOLVING FOR HEAD 
                                                   Max.-Head-Change                         Max.-Flux-Residual
  Residual-Control   Outer-Iter.   Inner-Iter.     Column Row Layer    Maximum-Head-Change  Column Row Layer    Maximum-Flux-Residual          L2-NORM 
          0                 1           2             2    2     1       0.6052091381E-02       2    2    1         0.3157645204E+00      0.6480872400E+00
          0                 2           2             2    2     1      -0.5887047513E-03       2    2    1        -0.3157653780E-01      0.6450914021E-01
          0                 3           1             2    2     1       0.4008859824E-04       2    2    1         0.2210357780E-02      0.4488417252E-02

    ------------------------------------------------
       NWT REQUIRED            3 OUTER ITERATIONS 
       AND A TOTAL OF          5 INNER ITERATIONS.
    ------------------------------------------------

 NO OUTPUT CONTROL FOR STRESS PERIOD    4   TIME STEP   19
 
 SOLVING FOR HEAD 
                                                   Max.-Head-Change                         Max.-Flux-Residual
  Residual-Control   Outer-Iter.   Inner-Iter.     Column Row Layer    Maximum-Head-Change  Column Row Layer    Maximum-Flux-Residual          L2-NORM 
          0                 1           2             2    2     1       0.6018525976E-02       2    2    1         0.3140004553E+00      0.6389240096E+00
          0                 2           2             2    2     1      -0.5854397320E-03       2    2    1        -0.3140012992E-01      0.6362719414E-01
          0                 3           1             2    2     1       0.3986626287E-04       2    2    1         0.2198009244E-02      0.4429841980E-02

    ------------------------------------------------
       NWT REQUIRED            3 OUTER ITERATIONS 
       AND A TOTAL OF          5 INNER ITERATIONS.
    ------------------------------------------------

 NO OUTPUT CONTROL FOR STRESS PERIOD    4   TIME STEP   20
 
 SOLVING FOR HEAD 
                                                   Max.-Head-Change                         Max.-Flux-Residual
  Residual-Control   Outer-Iter.   Inner-Iter.     Column Row Layer    Maximum-Head-Change  Column Row Layer    Maximum-Flux-Residual          L2-NORM 
          0                 1           2             2    2     1       0.5985411238E-02       2    2    1         0.3122601291E+00      0.6305800531E+00
          0                 2           2             2    2     1      -0.5822185507E-03       2    2    1        -0.3122609595E-01      0.6282338733E-01
          0                 3           1             2    2     1       0.3964691290E-04       2    2    1         0.2185826881E-02      0.4376079972E-02

    ------------------------------------------------
       NWT REQUIRED            3 OUTER ITERATIONS 
       AND A TOTAL OF          5 INNER ITERATIONS.
    ------------------------------------------------

 NO OUTPUT CONTROL FOR STRESS PERIOD    4   TIME STEP   21
 
 SOLVING FOR HEAD 
                                                   Max.-Head-Change                         Max.-Flux-Residual
  Residual-Control   Outer-Iter.   Inner-Iter.     Column Row Layer    Maximum-Head-Change  Column Row Layer    Maximum-Flux-Residual          L2-NORM 
          0                 1           2             2    2     1       0.5952740458E-02       2    2    1         0.3105431695E+00      0.6229691128E+00
          0                 2           2             2    2     1      -0.5790405548E-03       2    2    1        -0.3105439867E-01      0.6208981061E-01
          0                 3           1             2    2     1       0.3943050336E-04       2    2    1         0.2173808085E-02      0.4327238471E-02

    ------------------------------------------------
       NWT REQUIRED            3 OUTER ITERATIONS 
       AND A TOTAL OF          5 INNER ITERATIONS.
    ------------------------------------------------

 NO OUTPUT CONTROL FOR STRESS PERIOD    4   TIME STEP   22
 
 SOLVING FOR HEAD 
                                                   Max.-Head-Change                         Max.-Flux-Residual
  Residual-Control   Outer-Iter.   Inner-Iter.     Column Row Layer    Maximum-Head-Change  Column Row Layer    Maximum-Flux-Residual          L2-NORM 
          0                 1           2             2    2     1       0.5920419780E-02       2    2    1         0.3088446859E+00      0.6159851611E+00
          0                 2           2             2    2     1      -0.5758966146E-03       2    2    1        -0.3088454901E-01      0.6141561074E-01
          0                 3           1             2    2     1       0.3921641298E-04       2    2    1         0.2161918619E-02      0.4282436118E-02

    ------------------------------------------------
       NWT REQUIRED            3 OUTER ITERATIONS 
       AND A TOTAL OF          5 INNER ITERATIONS.
    ------------------------------------------------

 NO OUTPUT CONTROL FOR STRESS PERIOD    4   TIME STEP   23
 
 SOLVING FOR HEAD 
                                                   Max.-Head-Change                         Max.-Flux-Residual
  Residual-Control   Outer-Iter.   Inner-Iter.     Column Row Layer    Maximum-Head-Change  Column Row Layer    Maximum-Flux-Residual          L2-NORM 
          0                 1           2             2    2     1       0.5888530286E-02       2    2    1         0.3071688972E+00      0.6095685036E+00
          0                 2           2             2    2     1      -0.5727946173E-03       2    2    1        -0.3071696888E-01      0.6079422764E-01
          0                 3           1             2    2     1       0.3900517853E-04       2    2    1         0.2150188006E-02      0.4240828423E-02

    ------------------------------------------------
       NWT REQUIRED            3 OUTER ITERATIONS 
       AND A TOTAL OF          5 INNER ITERATIONS.
    ------------------------------------------------

 NO OUTPUT CONTROL FOR STRESS PERIOD    4   TIME STEP   24
 
 SOLVING FOR HEAD 
                                                   Max.-Head-Change                         Max.-Flux-Residual
  Residual-Control   Outer-Iter.   Inner-Iter.     Column Row Layer    Maximum-Head-Change  Column Row Layer    Maximum-Flux-Residual          L2-NORM 
          0                 1           2             2    2     1       0.5857064878E-02       2    2    1         0.3055154650E+00      0.6036484441E+00
          0                 2           2             2    2     1      -0.5697338725E-03       2    2    1        -0.3055162443E-01      0.6022135202E-01
          0                 3           1             2    2     1       0.3879675293E-04       2    2    1         0.2138613895E-02      0.4202762451E-02

    ------------------------------------------------
       NWT REQUIRED            3 OUTER ITERATIONS 
       AND A TOTAL OF          5 INNER ITERATIONS.
    ------------------------------------------------

 NO OUTPUT CONTROL FOR STRESS PERIOD    4   TIME STEP   25
 
 SOLVING FOR HEAD 
                                                   Max.-Head-Change                         Max.-Flux-Residual
  Residual-Control   Outer-Iter.   Inner-Iter.     Column Row Layer    Maximum-Head-Change  Column Row Layer    Maximum-Flux-Residual          L2-NORM 
          0                 1           2             2    2     1       0.5826017280E-02       2    2    1         0.3038840211E+00      0.5981779953E+00
          0                 2           2             2    2     1      -0.5667137698E-03       2    2    1        -0.3038847885E-01      0.5968979008E-01
          0                 3           1             2    2     1       0.3859109545E-04       2    2    1         0.2127193710E-02      0.4166664052E-02

    ------------------------------------------------
       NWT REQUIRED            3 OUTER ITERATIONS 
       AND A TOTAL OF          5 INNER ITERATIONS.
    ------------------------------------------------

 NO OUTPUT CONTROL FOR STRESS PERIOD    4   TIME STEP   26
 
 SOLVING FOR HEAD 
                                                   Max.-Head-Change                         Max.-Flux-Residual
  Residual-Control   Outer-Iter.   Inner-Iter.     Column Row Layer    Maximum-Head-Change  Column Row Layer    Maximum-Flux-Residual          L2-NORM 
          0                 1           2             2    2     1       0.5795294424E-02       2    2    1         0.3022696967E+00      0.5930867081E+00
          0                 2           2             2    2     1      -0.5637252560E-03       2    2    1        -0.3022704524E-01      0.5919483533E-01
          0                 3           1             2    2     1       0.3838758886E-04       2    2    1         0.2115893366E-02      0.4133255247E-02

    ------------------------------------------------
       NWT REQUIRED            3 OUTER ITERATIONS 
       AND A TOTAL OF          5 INNER ITERATIONS.
    ------------------------------------------------

 NO OUTPUT CONTROL FOR STRESS PERIOD    4   TIME STEP   27
 
 SOLVING FOR HEAD 
                                                   Max.-Head-Change                         Max.-Flux-Residual
  Residual-Control   Outer-Iter.   Inner-Iter.     Column Row Layer    Maximum-Head-Change  Column Row Layer    Maximum-Flux-Residual          L2-NORM 
          0                 1           2             2    2     1       0.5764977504E-02       2    2    1         0.3006767532E+00      0.5883463607E+00
          0                 2           2             2    2     1      -0.5607762282E-03       2    2    1        -0.3006774970E-01      0.5873307806E-01
          0                 3           1             2    2     1       0.3818677088E-04       2    2    1         0.2104742672E-02      0.4102132115E-02

    ------------------------------------------------
       NWT REQUIRED            3 OUTER ITERATIONS 
       AND A TOTAL OF          5 INNER ITERATIONS.
    ------------------------------------------------

 NO OUTPUT CONTROL FOR STRESS PERIOD    4   TIME STEP   28
 
 SOLVING FOR HEAD 
                                                   Max.-Head-Change                         Max.-Flux-Residual
  Residual-Control   Outer-Iter.   Inner-Iter.     Column Row Layer    Maximum-Head-Change  Column Row Layer    Maximum-Flux-Residual          L2-NORM 
          0                 1           2             2    2     1       0.5735060561E-02       2    2    1         0.2991048570E+00      0.5839164313E+00
          0                 2           2             2    2     1      -0.5578661090E-03       2    2    1        -0.2991055898E-01      0.5830078691E-01
          0                 3           1             2    2     1       0.3798860293E-04       2    2    1         0.2093739339E-02      0.4072471790E-02

    ------------------------------------------------
       NWT REQUIRED            3 OUTER ITERATIONS 
       AND A TOTAL OF          5 INNER ITERATIONS.
    ------------------------------------------------

 NO OUTPUT CONTROL FOR STRESS PERIOD    4   TIME STEP   29
 
 SOLVING FOR HEAD 
                                                   Max.-Head-Change                         Max.-Flux-Residual
  Residual-Control   Outer-Iter.   Inner-Iter.     Column Row Layer    Maximum-Head-Change  Column Row Layer    Maximum-Flux-Residual          L2-NORM 
          0                 1           2             2    2     1       0.4577996419E-02       2    2    1         0.2386111771E+00      0.5559196745E+00
          0                 2           2             2    2     1      -0.4453148557E-03       2    2    1        -0.2386116026E-01      0.5518098539E-01
          0                 3           1             2    2     1       0.3032428480E-04       2    2    1         0.1670281552E-02      0.3825414365E-02

    ------------------------------------------------
       NWT REQUIRED            3 OUTER ITERATIONS 
       AND A TOTAL OF          5 INNER ITERATIONS.
    ------------------------------------------------

 NO OUTPUT CONTROL FOR STRESS PERIOD    4   TIME STEP   30



 STREAM LISTING     PERIOD      4   STEP       30

 LAYER ROW COL. STREAM  RCH.  FLOW INTO     FLOW TO   FLOW OUT OF   OVRLND.     DIRECT     STREAM       STREAM     STREAM     STREAM   STREAMBED  STREAMBED
                SEG.NO.  NO.  STRM. RCH.    AQUIFER    STRM. RCH.    RUNOFF     PRECIP       ET          HEAD       DEPTH      WIDTH   CONDCTNC.   GRADIENT

   1    1    1     1     1    4.6685E+01  3.2585E-01   4.6359E+01  0.000E+00  0.000E+00  0.000E+00  1.09443E+03  1.378E+00  1.654E+01  7.443E-02  1.459E+00
   1    2    2     1     2    4.6359E+01  5.0484E-01   4.5855E+01  0.000E+00  0.000E+00  0.000E+00  1.08943E+03  1.375E+00  1.648E+01  1.154E-01  1.458E+00
   1    3    3     1     3    4.5855E+01  4.3074E-01   4.5424E+01  0.000E+00  0.000E+00  0.000E+00  1.08379E+03  1.372E+00  1.642E+01  9.852E-02  1.457E+00
   1    3    4     1     4    4.5424E+01  3.9680E-01   4.5027E+01  0.000E+00  0.000E+00  0.000E+00  1.07878E+03  1.369E+00  1.636E+01  9.082E-02  1.456E+00
   1    4    5     2     1    4.3027E+01  3.6413E-01   4.2663E+01  0.000E+00  0.000E+00  0.000E+00  1.07360E+03  1.668E+00  1.200E+01  7.800E-02  1.556E+00
   1    5    6     2     2    4.2663E+01  2.7965E-01   4.2383E+01  0.000E+00  0.000E+00  0.000E+00  1.06817E+03  1.661E+00  1.200E+01  6.000E-02  1.554E+00
   1    6    6     2     3    4.2383E+01  2.7926E-01   4.2104E+01  0.000E+00  0.000E+00  0.000E+00  1.06345E+03  1.654E+00  1.200E+01  6.000E-02  1.551E+00
   1    7    6     2     4    4.2104E+01  2.7886E-01   4.1825E+01  0.000E+00  0.000E+00  0.000E+00  1.05872E+03  1.648E+00  1.200E+01  6.000E-02  1.549E+00
   1    8    6     2     5    4.1825E+01  2.7847E-01   4.1547E+01  0.000E+00  0.000E+00  0.000E+00  1.05400E+03  1.641E+00  1.200E+01  6.000E-02  1.547E+00
   1    3    5     3     1    2.0000E+00  2.8252E-01   1.7175E+00  0.000E+00  0.000E+00  0.000E+00  1.07555E+03  1.909E+00  9.636E+00  7.227E-02  1.955E+00
   1    3    6     3     2    1.7175E+00  2.4905E-01   1.4684E+00  0.000E+00  0.000E+00  0.000E+00  1.07264E+03  1.727E+00  8.909E+00  6.682E-02  1.864E+00
   1    3    7     3     3    1.4684E+00  1.9718E-01   1.2712E+00  0.000E+00  0.000E+00  0.000E+00  1.06987E+03  1.555E+00  8.218E+00  5.547E-02  1.777E+00
   1    4    8     3     4    1.2712E+00  2.2567E-01   1.0456E+00  0.000E+00  0.000E+00  0.000E+00  1.06682E+03  1.364E+00  7.455E+00  6.709E-02  1.682E+00
   1    5    8     3     5    1.0456E+00  1.5790E-01   8.8768E-01  0.000E+00  0.000E+00  0.000E+00  1.06362E+03  1.164E+00  6.655E+00  4.991E-02  1.582E+00
   1    6    8     3     6    8.8768E-01  5.5980E-02   8.3170E-01  0.000E+00  0.000E+00  0.000E+00  1.06158E+03  1.036E+00  6.145E+00  1.844E-02  1.518E+00
   1    5   10     4     1    1.0000E+01  9.0919E-02   9.9091E+00  0.000E+00  0.000E+00  0.000E+00  1.07836E+03  6.368E-01  1.000E+01  2.500E-02  1.212E+00
   1    5    9     4     2    9.9091E+00  1.8158E-01   9.7275E+00  0.000E+00  0.000E+00  0.000E+00  1.07154E+03  6.315E-01  1.000E+01  5.000E-02  1.211E+00
   1    6    8     4     3    9.7275E+00  1.2689E-01   9.6006E+00  0.000E+00  0.000E+00  0.000E+00  1.06381E+03  6.256E-01  1.000E+01  3.500E-02  1.209E+00
   1    6    8     5     1    1.0432E+01  2.2686E-01   1.0205E+01  0.000E+00  0.000E+00  0.000E+00  1.05868E+03  6.790E-01  1.542E+01  6.166E-02  1.226E+00
   1    7    7     5     2    1.0205E+01  2.7894E-01   9.9265E+00  0.000E+00  0.000E+00  0.000E+00  1.05417E+03  6.732E-01  1.519E+01  7.594E-02  1.224E+00
   1    8    7     5     3    9.9265E+00  1.9221E-01   9.7343E+00  0.000E+00  0.000E+00  0.000E+00  1.04992E+03  6.676E-01  1.497E+01  5.241E-02  1.223E+00
   1    8    6     5     4    9.7343E+00  1.3577E-01   9.5985E+00  0.000E+00  0.000E+00  0.000E+00  1.04691E+03  6.637E-01  1.482E+01  3.706E-02  1.221E+00
   1    9    6     6     1    5.1145E+01  2.9237E-01   5.0853E+01  0.000E+00  0.000E+00  0.000E+00  1.04460E+03  1.873E+00  1.200E+01  6.000E-02  1.624E+00
   1   10    7     6     2    5.0853E+01  2.9199E-01   5.0561E+01  0.000E+00  0.000E+00  0.000E+00  1.04005E+03  1.866E+00  1.200E+01  6.000E-02  1.622E+00
   1   11    7     6     3    5.0561E+01  2.9160E-01   5.0269E+01  0.000E+00  0.000E+00  0.000E+00  1.03550E+03  1.860E+00  1.200E+01  6.000E-02  1.620E+00
   1   12    7     6     4    5.0269E+01  2.9121E-01   4.9978E+01  0.000E+00  0.000E+00  0.000E+00  1.03094E+03  1.854E+00  1.200E+01  6.000E-02  1.618E+00
   1   13    7     6     5    4.9978E+01  1.5046E-02   4.9963E+01  0.000E+00  0.000E+00  0.000E+00  1.02776E+03  1.850E+00  1.200E+01  2.400E-02  2.090E-01
   1   14    9     7     1    1.5000E+02  1.3355E+00   1.4866E+02  0.000E+00  0.000E+00  0.000E+00  1.03987E+03  2.288E+00  5.529E+01  5.593E-01  7.959E-01
   1   13    8     7     2    1.4866E+02  1.8270E+00   1.4684E+02  0.000E+00  0.000E+00  0.000E+00  1.03478E+03  2.279E+00  5.526E+01  6.148E-01  9.906E-01
   1   13    7     7     3    1.4684E+02  1.4284E+00   1.4541E+02  0.000E+00  0.000E+00  0.000E+00  1.02969E+03  2.271E+00  5.522E+01  5.585E-01  8.526E-01
   1   13    6     8     1    1.9537E+02  9.7131E-01   1.9440E+02  0.000E+00  0.000E+00  0.000E+00  1.02498E+03  3.107E+00  4.506E+01  4.591E-01  7.052E-01
   1   13    5     8     2    1.9440E+02  1.7796E-01   1.9422E+02  0.000E+00  0.000E+00  0.000E+00  1.01873E+03  3.104E+00  4.501E+01  4.586E-01  1.293E-01
   1   13    4     8     3    1.9422E+02 -2.6466E+00   1.9687E+02  0.000E+00  0.000E+00  0.000E+00  1.01249E+03  3.111E+00  4.511E+01  4.597E+00 -1.919E-01
   1   13    3     8     4    1.9687E+02 -3.8111E+00   2.0068E+02  0.000E+00  0.000E+00  0.000E+00  1.00626E+03  3.130E+00  4.539E+01  4.626E+00 -2.746E-01
   1   13    2     8     5    2.0068E+02 -2.7018E+00   2.0338E+02  0.000E+00  0.000E+00  0.000E+00  1.00002E+03  3.150E+00  4.567E+01  4.654E+00 -1.935E-01
   1   13    1     8     6    2.0338E+02 -2.0096E+00   2.0539E+02  0.000E+00  0.000E+00  0.000E+00  9.95038E+02  3.163E+00  4.587E+01  2.805E+00 -2.388E-01
   1    8    6     9     1    0.0000E+00  0.0000E+00   0.0000E+00  0.000E+00  0.000E+00  0.000E+00  1.07875E+03  0.000E+00  4.000E+00  0.000E+00  1.000E+00
   1    8    5     9     2    0.0000E+00  0.0000E+00   0.0000E+00  0.000E+00  0.000E+00  0.000E+00  1.07825E+03  0.000E+00  4.000E+00  0.000E+00  1.000E+00





UNSATURATED ZONE PACKAGE VOLUMETRIC BUDGET FOR  TIME STEP    30 STRESS PERIOD    4
  ------------------------------------------------------------------------------



     CUMULATIVE VOLUMES      L**3       RATES FOR THIS TIME STEP      L**3/T
     ------------------                 ------------------------

           IN:                                      IN:
           ---                                      ---
        INFILTRATION =     6759998.6182          INFILTRATION =           0.8475

          OUT:                                     OUT:
          ----                                     ----
              UZF ET =     5917483.9357                UZF ET =           0.7500
        UZF RECHARGE =       73224.0000          UZF RECHARGE =       0.0000E+00

            IN - OUT =      769290.6826              IN - OUT =       9.7500E-02

          STORAGE:                                 STORAGE:
          --------                                 --------
      STORAGE CHANGE =      769290.7506        STORAGE CHANGE =       9.7500E-02

 PERCENT DISCREPANCY IS DIFFERENCE BETWEEN IN-OUT MINUS CHANGE IN STORAGE
 DIVIDED BY THE AVERAGE OF IN AND OUT TIMES 100

 PERCENT DISCREPANCY =           0.00     PERCENT DISCREPANCY =           0.00






1
  VOLUMETRIC BUDGET FOR AGRICULTURAL FIELDS AT  END OF TIME STEP   30, STRESS PERIOD   4
  ------------------------------------------------------------------------------

     CUMULATIVE VOLUMES      L**3       RATES FOR THIS TIME STEP      L**3/T
     ------------------                 ------------------------

           IN:                                      IN:
           ---                                      ---
               AG WELLS  =           0.0000                 AG WELLS  =           0.0000
      DIVERSION SEGMENTS =           0.0000        DIVERSION SEGMENTS =           0.0000
       IRRIGATION PONDS  =           0.0000         IRRIGATION PONDS  =           0.0000
           GW IRRIGATION =           0.0000             GW IRRIGATION =           0.0000
           SW IRRIGATION =           0.0000             SW IRRIGATION =           0.0000
        SYSTEM LOSSES GW =           0.0000          SYSTEM LOSSES GW =           0.0000
        SYSTEM LOSSES SW =           0.0000          SYSTEM LOSSES SW =           0.0000

                TOTAL IN =           0.0000                  TOTAL IN =           0.0000

          OUT:                                     OUT:
          ----                                     ----
               AG WELLS  =           0.0000                 AG WELLS  =           0.0000
      DIVERSION SEGMENTS =           0.0000        DIVERSION SEGMENTS =           0.0000
       IRRIGATION PONDS  =           0.0000         IRRIGATION PONDS  =           0.0000
           GW IRRIGATION =           0.0000             GW IRRIGATION =           0.0000
           SW IRRIGATION =           0.0000             SW IRRIGATION =           0.0000
        SYSTEM LOSSES GW =           0.0000          SYSTEM LOSSES GW =           0.0000
        SYSTEM LOSSES SW =           0.0000          SYSTEM LOSSES SW =           0.0000

               TOTAL OUT =           0.0000                 TOTAL OUT =           0.0000

                IN - OUT =           0.0000                  IN - OUT =           0.0000

     PERCENT DISCREPANCY =           0.00         PERCENT DISCREPANCY =           0.00



1
  VOLUMETRIC BUDGET FOR ENTIRE MODEL AT END OF TIME STEP   30, STRESS PERIOD   4
  ------------------------------------------------------------------------------

     CUMULATIVE VOLUMES      L**3       RATES FOR THIS TIME STEP      L**3/T
     ------------------                 ------------------------

           IN:                                      IN:
           ---                                      ---
             STORAGE     =     4352804.0000               STORAGE     =           0.9339
       CONSTANT HEAD     =           0.0000         CONSTANT HEAD     =           0.0000
     HEAD DEP BOUNDS     =     2278729.0000       HEAD DEP BOUNDS     =           0.2857
      STREAM LEAKAGE     =    95891936.0000        STREAM LEAKAGE     =          12.4623
        UZF RECHARGE     =       73223.9531          UZF RECHARGE     =           0.0000
               GW ET     =           0.0000                 GW ET     =           0.0000
     SURFACE LEAKAGE     =           0.0000       SURFACE LEAKAGE     =           0.0000
           AG WELLS      =           0.0000             AG WELLS      =           0.0000

                TOTAL IN =   102596696.0000                  TOTAL IN =          13.6819

          OUT:                                     OUT:
          ----                                     ----
             STORAGE     =    18028010.0000               STORAGE     =           2.2164
       CONSTANT HEAD     =           0.0000         CONSTANT HEAD     =           0.0000
     HEAD DEP BOUNDS     =     2316606.5000       HEAD DEP BOUNDS     =           0.2947
      STREAM LEAKAGE     =    82252224.0000        STREAM LEAKAGE     =          11.1691
        UZF RECHARGE     =           0.0000          UZF RECHARGE     =           0.0000
               GW ET     =        3763.8833                 GW ET     =       2.1214E-03
     SURFACE LEAKAGE     =           0.0000       SURFACE LEAKAGE     =           0.0000
           AG WELLS      =           0.0000             AG WELLS      =           0.0000

               TOTAL OUT =   102600600.0000                 TOTAL OUT =          13.6823

                IN - OUT =       -3904.0000                  IN - OUT =      -3.6430E-04

     PERCENT DISCREPANCY =          -0.00         PERCENT DISCREPANCY =          -0.00






         TIME SUMMARY AT END OF TIME STEP   30 IN STRESS PERIOD    4
                    SECONDS     MINUTES      HOURS       DAYS        YEARS
                    -----------------------------------------------------------
   TIME STEP LENGTH  87667.      1461.1      24.352      1.0147     2.77799E-03
 STRESS PERIOD TIME 2.63000E+06  43833.      730.56      30.440     8.33397E-02
         TOTAL TIME 7.97639E+06 1.32940E+05  2215.7      92.319     0.25276    
1
1
                            STRESS PERIOD NO.    5, LENGTH =   2630000.    
                            -----------------------------------------------

                              NUMBER OF TIME STEPS =    30

                               MULTIPLIER FOR DELT =     1.000

                            INITIAL TIME STEP SIZE =   87666.66    

 REUSING NON-PARAMETER GHB CELLS FROM LAST STRESS PERIOD

      2 GHB CELLS

 REUSING STREAM SEGMENT DATA FROM LAST STRESS PERIOD



            AREAL INFILTRATION RATE
 READING ON UNIT   19 WITH FORMAT: (FREE)              

            1           2           3           4           5           6           7           8           9          10
 ........................................................................................................................
   1   1.0000E-10  2.0000E-10   0.000       0.000       0.000       0.000       0.000       0.000       0.000       0.000    
   2   2.0000E-10  1.0000E-10  2.0000E-10   0.000       0.000      8.0000E-10  8.0000E-10  5.0000E-10   0.000       0.000    
   3    0.000      5.0000E-10  1.0000E-10  1.0000E-10  8.0000E-10  8.0000E-10  5.0000E-10  5.0000E-10   0.000       0.000    
   4   8.0000E-10  5.0000E-10  1.0000E-10  1.0000E-10  1.0000E-10  1.0000E-10  1.0000E-10  1.0000E-10  2.0000E-10   0.000    
   5   8.0000E-10  5.0000E-10  1.0000E-10  1.0000E-10  1.0000E-10  1.0000E-10  1.0000E-10  1.0000E-10  1.0000E-10  1.0000E-10
   6   8.0000E-10  5.0000E-10  5.0000E-10  2.0000E-10  2.0000E-10  1.0000E-10  1.0000E-10  1.0000E-10  1.0000E-10  5.0000E-10
   7   8.0000E-10  5.0000E-10  5.0000E-10  2.0000E-10  2.0000E-10  1.0000E-10  1.0000E-10  2.0000E-10  2.0000E-10   0.000    
   8    0.000      5.0000E-10  5.0000E-10  2.0000E-10  2.0000E-10  1.0000E-10  1.0000E-10  2.0000E-10  5.0000E-10   0.000    
   9    0.000      5.0000E-10  5.0000E-10  2.0000E-10  2.0000E-10  1.0000E-10  1.0000E-10  2.0000E-10  5.0000E-10   0.000    
  10    0.000      5.0000E-10  5.0000E-10  2.0000E-10  2.0000E-10  1.0000E-10  1.0000E-10  2.0000E-10  5.0000E-10  8.0000E-10
  11    0.000      1.0000E-10  1.0000E-10  1.0000E-10  1.0000E-10  1.0000E-10  1.0000E-10  2.0000E-10  5.0000E-10   0.000    
  12   1.0000E-10  1.0000E-10  1.0000E-10  1.0000E-10  1.0000E-10  1.0000E-10  1.0000E-10  1.0000E-10  2.0000E-10   0.000    
  13   1.0000E-10  1.0000E-10  2.0000E-10  2.0000E-10  2.0000E-10  2.0000E-10  2.0000E-10  1.0000E-10  1.0000E-10   0.000    
  14    0.000      2.0000E-10  5.0000E-10  5.0000E-10  5.0000E-10  5.0000E-10  5.0000E-10  2.0000E-10  1.0000E-10   0.000    
  15    0.000       0.000      8.0000E-10  8.0000E-10  8.0000E-10  8.0000E-10   0.000       0.000       0.000       0.000    

                  ET RATE =  2.500000E-08

 USING ET EXTINCTION DEPTH FROM PREVIOUS STRESS PERIOD. CURRENT PERIOD IS:       5

 USING EXTINCTION WATER CONTENT FROM PREVIOUS STRESS PERIOD. CURRENT PERIOD IS:       5

 USING AIR ENTRY PRESSURE FROM PREVIOUS STRESS PERIOD. CURRENT PERIOD IS:       5

 USING ROOT PRESSURE HEAD FROM PREVIOUS STRESS PERIOD. CURRENT PERIOD IS:       5

 USING ROOT ACTIVITY FROM PREVIOUS STRESS PERIOD. CURRENT PERIOD IS:       5

 PROCESSING AG STRESS PERIOD DATA

 READING AG STRESS PERIOD DATA

 READING IRRIGATION SEGMENT

 READING IRRIGATION WELL

 READING SUPPLEMENTAL WELL

 NO IRRPOND OR REUSING IRRPOND DATA FROM LAST STRESS PERIOD

 END PROCESSING AG STRESS PERIOD DATA OPTIONS
 
 SOLVING FOR HEAD 
                                                   Max.-Head-Change                         Max.-Flux-Residual
  Residual-Control   Outer-Iter.   Inner-Iter.     Column Row Layer    Maximum-Head-Change  Column Row Layer    Maximum-Flux-Residual          L2-NORM 
          0                 1           2             4   13     1      -0.1463771697E-01       4   13    1        -0.8564706802E+00      0.1451258197E+01
          0                 2           2             4    7     1      -0.1155339307E-01       5    6    1        -0.6221717011E+00      0.1523061534E+01
          0                 3           2             4    7     1       0.1201668425E-01       5    6    1         0.6635490187E+00      0.1625090184E+01
          0                 4           2             4    7     1      -0.4781835735E-03       4    6    1        -0.2723781503E-01      0.6650954617E-01
          0                 5           1             4    7     1       0.5898932230E-05       4    6    1         0.3453110203E-03      0.8438627074E-03

    ------------------------------------------------
       NWT REQUIRED            5 OUTER ITERATIONS 
       AND A TOTAL OF          9 INNER ITERATIONS.
    ------------------------------------------------

 NO OUTPUT CONTROL FOR STRESS PERIOD    5   TIME STEP    1
 
 SOLVING FOR HEAD 
                                                   Max.-Head-Change                         Max.-Flux-Residual
  Residual-Control   Outer-Iter.   Inner-Iter.     Column Row Layer    Maximum-Head-Change  Column Row Layer    Maximum-Flux-Residual          L2-NORM 
          0                 1           2             4   13     1      -0.1151671654E-01       4   13    1        -0.6740249587E+00      0.1178307732E+01
          0                 2           2             4   13     1       0.1111226499E-02       4   13    1         0.6686757093E-01      0.1150345884E+00
          0                 3           1             4   13     1      -0.7479660136E-04       4   13    1        -0.4627555783E-02      0.7785722209E-02

    ------------------------------------------------
       NWT REQUIRED            3 OUTER ITERATIONS 
       AND A TOTAL OF          5 INNER ITERATIONS.
    ------------------------------------------------

 OUTPUT CONTROL FOR STRESS PERIOD    5   TIME STEP    2
    PRINT BUDGET
    SAVE BUDGET
 UBDSV1 SAVING "         STORAGE" ON UNIT 102 AT TIME STEP 2, STRESS PERIOD 5
 UBDSV2 SAVING "   CONSTANT HEAD" ON UNIT 102 AT TIME STEP 2, STRESS PERIOD 5
 UBDSV1 SAVING "FLOW RIGHT FACE " ON UNIT 102 AT TIME STEP 2, STRESS PERIOD 5
 UBDSV1 SAVING "FLOW FRONT FACE " ON UNIT 102 AT TIME STEP 2, STRESS PERIOD 5

  HEAD DEP BOUNDS   PERIOD    5   STEP     2
 BOUNDARY      1   LAYER   1   ROW    13   COL     1   RATE   -0.294233    
 BOUNDARY      2   LAYER   1   ROW    14   COL     9   RATE    0.285737    



 STREAM LISTING     PERIOD      5   STEP        2

 LAYER ROW COL. STREAM  RCH.  FLOW INTO     FLOW TO   FLOW OUT OF   OVRLND.     DIRECT     STREAM       STREAM     STREAM     STREAM   STREAMBED  STREAMBED
                SEG.NO.  NO.  STRM. RCH.    AQUIFER    STRM. RCH.    RUNOFF     PRECIP       ET          HEAD       DEPTH      WIDTH   CONDCTNC.   GRADIENT

   1    1    1     1     1    2.1000E+01  2.2591E-01   2.0774E+01  0.000E+00  0.000E+00  0.000E+00  1.09416E+03  1.115E+00  1.220E+01  5.490E-02  1.372E+00
   1    2    2     1     2    2.0774E+01  3.4916E-01   2.0425E+01  0.000E+00  0.000E+00  0.000E+00  1.08917E+03  1.110E+00  1.214E+01  8.495E-02  1.370E+00
   1    3    3     1     3    2.0425E+01  2.9709E-01   2.0128E+01  0.000E+00  0.000E+00  0.000E+00  1.08352E+03  1.105E+00  1.206E+01  7.238E-02  1.368E+00
   1    3    4     1     4    2.0128E+01  2.7299E-01   1.9855E+01  0.000E+00  0.000E+00  0.000E+00  1.07851E+03  1.100E+00  1.200E+01  6.659E-02  1.367E+00
   1    4    5     2     1    1.7855E+01  3.1056E-01   1.7544E+01  0.000E+00  0.000E+00  0.000E+00  1.07292E+03  9.816E-01  1.200E+01  7.800E-02  1.327E+00
   1    5    6     2     2    1.7544E+01  2.3834E-01   1.7306E+01  0.000E+00  0.000E+00  0.000E+00  1.06748E+03  9.724E-01  1.200E+01  6.000E-02  1.324E+00
   1    6    6     2     3    1.7306E+01  2.3786E-01   1.7068E+01  0.000E+00  0.000E+00  0.000E+00  1.06276E+03  9.644E-01  1.200E+01  6.000E-02  1.321E+00
   1    7    6     2     4    1.7068E+01  2.3738E-01   1.6831E+01  0.000E+00  0.000E+00  0.000E+00  1.05803E+03  9.564E-01  1.200E+01  6.000E-02  1.319E+00
   1    8    6     2     5    1.6831E+01  2.3690E-01   1.6594E+01  0.000E+00  0.000E+00  0.000E+00  1.05331E+03  9.483E-01  1.200E+01  6.000E-02  1.316E+00
   1    3    5     3     1    2.0000E+00  2.8252E-01   1.7175E+00  0.000E+00  0.000E+00  0.000E+00  1.07555E+03  1.909E+00  9.636E+00  7.227E-02  1.955E+00
   1    3    6     3     2    1.7175E+00  2.4905E-01   1.4684E+00  0.000E+00  0.000E+00  0.000E+00  1.07264E+03  1.727E+00  8.909E+00  6.682E-02  1.864E+00
   1    3    7     3     3    1.4684E+00  1.9718E-01   1.2712E+00  0.000E+00  0.000E+00  0.000E+00  1.06987E+03  1.555E+00  8.218E+00  5.547E-02  1.777E+00
   1    4    8     3     4    1.2712E+00  2.2567E-01   1.0456E+00  0.000E+00  0.000E+00  0.000E+00  1.06682E+03  1.364E+00  7.455E+00  6.709E-02  1.682E+00
   1    5    8     3     5    1.0456E+00  1.5790E-01   8.8768E-01  0.000E+00  0.000E+00  0.000E+00  1.06362E+03  1.164E+00  6.655E+00  4.991E-02  1.582E+00
   1    6    8     3     6    8.8768E-01  5.5980E-02   8.3170E-01  0.000E+00  0.000E+00  0.000E+00  1.06158E+03  1.036E+00  6.145E+00  1.844E-02  1.518E+00
   1    5   10     4     1    1.0000E+01  9.0919E-02   9.9091E+00  0.000E+00  0.000E+00  0.000E+00  1.07836E+03  6.368E-01  1.000E+01  2.500E-02  1.212E+00
   1    5    9     4     2    9.9091E+00  1.8158E-01   9.7275E+00  0.000E+00  0.000E+00  0.000E+00  1.07154E+03  6.315E-01  1.000E+01  5.000E-02  1.211E+00
   1    6    8     4     3    9.7275E+00  1.2689E-01   9.6006E+00  0.000E+00  0.000E+00  0.000E+00  1.06381E+03  6.256E-01  1.000E+01  3.500E-02  1.209E+00
   1    6    8     5     1    1.0432E+01  2.2686E-01   1.0205E+01  0.000E+00  0.000E+00  0.000E+00  1.05868E+03  6.790E-01  1.542E+01  6.166E-02  1.226E+00
   1    7    7     5     2    1.0205E+01  2.7894E-01   9.9265E+00  0.000E+00  0.000E+00  0.000E+00  1.05417E+03  6.732E-01  1.519E+01  7.594E-02  1.224E+00
   1    8    7     5     3    9.9265E+00  1.9221E-01   9.7343E+00  0.000E+00  0.000E+00  0.000E+00  1.04992E+03  6.676E-01  1.497E+01  5.241E-02  1.223E+00
   1    8    6     5     4    9.7343E+00  1.3577E-01   9.5985E+00  0.000E+00  0.000E+00  0.000E+00  1.04691E+03  6.637E-01  1.482E+01  3.706E-02  1.221E+00
   1    9    6     6     1    2.6192E+01  2.5512E-01   2.5937E+01  0.000E+00  0.000E+00  0.000E+00  1.04398E+03  1.252E+00  1.200E+01  6.000E-02  1.417E+00
   1   10    7     6     2    2.5937E+01  2.5468E-01   2.5682E+01  0.000E+00  0.000E+00  0.000E+00  1.03943E+03  1.245E+00  1.200E+01  6.000E-02  1.415E+00
   1   11    7     6     3    2.5682E+01  2.5424E-01   2.5428E+01  0.000E+00  0.000E+00  0.000E+00  1.03487E+03  1.237E+00  1.200E+01  6.000E-02  1.412E+00
   1   12    7     6     4    2.5428E+01  2.5379E-01   2.5174E+01  0.000E+00  0.000E+00  0.000E+00  1.03032E+03  1.230E+00  1.200E+01  6.000E-02  1.410E+00
   1   13    7     6     5    2.5174E+01  7.3371E-05   2.5174E+01  0.000E+00  0.000E+00  0.000E+00  1.02714E+03  1.226E+00  1.200E+01  2.400E-02  1.019E-03
   1   14    9     7     1    1.5000E+02  1.3355E+00   1.4866E+02  0.000E+00  0.000E+00  0.000E+00  1.03987E+03  2.288E+00  5.529E+01  5.593E-01  7.959E-01
   1   13    8     7     2    1.4866E+02  1.8267E+00   1.4684E+02  0.000E+00  0.000E+00  0.000E+00  1.03478E+03  2.279E+00  5.526E+01  6.148E-01  9.904E-01
   1   13    7     7     3    1.4684E+02  1.4284E+00   1.4541E+02  0.000E+00  0.000E+00  0.000E+00  1.02969E+03  2.271E+00  5.522E+01  5.585E-01  8.526E-01
   1   13    6     8     1    1.7058E+02  8.5723E-01   1.6973E+02  0.000E+00  0.000E+00  0.000E+00  1.02483E+03  2.953E+00  4.282E+01  4.364E-01  6.548E-01
   1   13    5     8     2    1.6973E+02  1.0279E-01   1.6962E+02  0.000E+00  0.000E+00  0.000E+00  1.01858E+03  2.950E+00  4.278E+01  4.359E-01  7.860E-02
   1   13    4     8     3    1.6962E+02 -3.0714E+00   1.7270E+02  0.000E+00  0.000E+00  0.000E+00  1.01233E+03  2.960E+00  4.292E+01  4.373E+00 -2.341E-01
   1   13    3     8     4    1.7270E+02 -4.1787E+00   1.7687E+02  0.000E+00  0.000E+00  0.000E+00  1.00611E+03  2.983E+00  4.325E+01  4.408E+00 -3.160E-01
   1   13    2     8     5    1.7687E+02 -3.1137E+00   1.7999E+02  0.000E+00  0.000E+00  0.000E+00  9.99881E+02  3.006E+00  4.359E+01  4.442E+00 -2.336E-01
   1   13    1     8     6    1.7999E+02 -2.2642E+00   1.8225E+02  0.000E+00  0.000E+00  0.000E+00  9.94898E+02  3.023E+00  4.384E+01  2.680E+00 -2.816E-01
   1    8    6     9     1    2.2132E-07  0.0000E+00   2.2132E-07  0.000E+00  0.000E+00  0.000E+00  1.07875E+03  5.785E-05  4.000E+00  0.000E+00  1.000E+00
   1    8    5     9     2    2.2132E-07  0.0000E+00   2.2132E-07  0.000E+00  0.000E+00  0.000E+00  1.07825E+03  5.785E-05  4.000E+00  0.000E+00  1.000E+00



 UBDSV3 SAVING "           GW ET" ON UNIT  61 AT TIME STEP 2, STRESS PERIOD 5
 UBDSV3 SAVING "    UZF RECHARGE" ON UNIT  61 AT TIME STEP 2, STRESS PERIOD 5
 UBDSV3 SAVING " SURFACE LEAKAGE" ON UNIT  61 AT TIME STEP 2, STRESS PERIOD 5
 UBDSV3 SAVING "       HORT+DUNN" ON UNIT  61 AT TIME STEP 2, STRESS PERIOD 5
 UBDSV3 SAVING "  STORAGE CHANGE" ON UNIT  61 AT TIME STEP 2, STRESS PERIOD 5


UNSATURATED ZONE PACKAGE VOLUMETRIC BUDGET FOR  TIME STEP     2 STRESS PERIOD    5
  ------------------------------------------------------------------------------



     CUMULATIVE VOLUMES      L**3       RATES FOR THIS TIME STEP      L**3/T
     ------------------                 ------------------------

           IN:                                      IN:
           ---                                      ---
        INFILTRATION =     7563476.7699          INFILTRATION =           0.8475

          OUT:                                     OUT:
          ----                                     ----
              UZF ET =     7406351.6127                UZF ET =           4.5966
        UZF RECHARGE =       73224.0000          UZF RECHARGE =       0.0000E+00

            IN - OUT =       83901.1572              IN - OUT =          -3.7491

          STORAGE:                                 STORAGE:
          --------                                 --------
      STORAGE CHANGE =       83900.5732        STORAGE CHANGE =          -3.7491

 PERCENT DISCREPANCY IS DIFFERENCE BETWEEN IN-OUT MINUS CHANGE IN STORAGE
 DIVIDED BY THE AVERAGE OF IN AND OUT TIMES 100

 PERCENT DISCREPANCY =           0.00     PERCENT DISCREPANCY =           0.00






 

            AG WELLS      PERIOD    5   STEP   2
 AG WELL      1   LAYER   1   ROW     6   COL     4   RATE     0.00000    
 AG WELL      2   LAYER   1   ROW     6   COL     5   RATE     0.00000    
 AG WELL      3   LAYER   1   ROW     7   COL     4   RATE     0.00000    
 AG WELL      4   LAYER   1   ROW     7   COL     5   RATE     0.00000    
 AG WELL      5   LAYER   1   ROW     8   COL     4   RATE     0.00000    
 AG WELL      6   LAYER   1   ROW     8   COL     5   RATE     0.00000    
 
 

   DIVERSION SEGMENTS     PERIOD    5   STEP   2
 SEGMENT      9   RATE    2.213197E-07
 
 

        SW IRRIGATION     PERIOD    5   STEP   2
 SEGMENT      9   ROW     6   COL     4   RATE    3.688735E-08
 SEGMENT      9   ROW     6   COL     5   RATE    3.688735E-08
 SEGMENT      9   ROW     7   COL     4   RATE    3.688735E-08
 SEGMENT      9   ROW     7   COL     5   RATE    3.688735E-08
 SEGMENT      9   ROW     8   COL     4   RATE    3.688735E-08
 SEGMENT      9   ROW     8   COL     5   RATE    3.688735E-08
 
 

        GW IRRIGATION     PERIOD    5   STEP   2
 AG WELL      1   ROW     6   COL     4   RATE     0.00000    
 AG WELL      2   ROW     6   COL     5   RATE     0.00000    
 AG WELL      3   ROW     7   COL     4   RATE     0.00000    
 AG WELL      4   ROW     7   COL     5   RATE     0.00000    
 AG WELL      5   ROW     8   COL     4   RATE     0.00000    
 AG WELL      6   ROW     8   COL     5   RATE     0.00000    
 
1
  VOLUMETRIC BUDGET FOR AGRICULTURAL FIELDS AT  END OF TIME STEP    2, STRESS PERIOD   5
  ------------------------------------------------------------------------------

     CUMULATIVE VOLUMES      L**3       RATES FOR THIS TIME STEP      L**3/T
     ------------------                 ------------------------

           IN:                                      IN:
           ---                                      ---
               AG WELLS  =           0.0000                 AG WELLS  =           0.0000
      DIVERSION SEGMENTS =      654870.0625        DIVERSION SEGMENTS =       2.2132E-07
       IRRIGATION PONDS  =           0.0000         IRRIGATION PONDS  =           0.0000
           GW IRRIGATION =           0.0000             GW IRRIGATION =           0.0000
           SW IRRIGATION =           0.0000             SW IRRIGATION =           0.0000
        SYSTEM LOSSES GW =           0.0000          SYSTEM LOSSES GW =           0.0000
        SYSTEM LOSSES SW =           0.0000          SYSTEM LOSSES SW =           0.0000

                TOTAL IN =      654870.0625                  TOTAL IN =       2.2132E-07

          OUT:                                     OUT:
          ----                                     ----
               AG WELLS  =           0.0000                 AG WELLS  =           0.0000
      DIVERSION SEGMENTS =           0.0000        DIVERSION SEGMENTS =           0.0000
       IRRIGATION PONDS  =           0.0000         IRRIGATION PONDS  =           0.0000
           GW IRRIGATION =           0.0000             GW IRRIGATION =           0.0000
           SW IRRIGATION =      654883.1250             SW IRRIGATION =       2.2132E-07
        SYSTEM LOSSES GW =           0.0000          SYSTEM LOSSES GW =           0.0000
        SYSTEM LOSSES SW =           0.0000          SYSTEM LOSSES SW =           0.0000

               TOTAL OUT =      654883.1250                 TOTAL OUT =       2.2132E-07

                IN - OUT =         -13.0625                  IN - OUT =      -4.4196E-12

     PERCENT DISCREPANCY =          -0.00         PERCENT DISCREPANCY =          -0.00



1
  VOLUMETRIC BUDGET FOR ENTIRE MODEL AT END OF TIME STEP    2, STRESS PERIOD   5
  ------------------------------------------------------------------------------

     CUMULATIVE VOLUMES      L**3       RATES FOR THIS TIME STEP      L**3/T
     ------------------                 ------------------------

           IN:                                      IN:
           ---                                      ---
             STORAGE     =     4894542.0000               STORAGE     =           2.6621
       CONSTANT HEAD     =           0.0000         CONSTANT HEAD     =           0.0000
     HEAD DEP BOUNDS     =     2328828.0000       HEAD DEP BOUNDS     =           0.2857
      STREAM LEAKAGE     =    97876648.0000        STREAM LEAKAGE     =          11.3762
        UZF RECHARGE     =       73223.9531          UZF RECHARGE     =           0.0000
               GW ET     =           0.0000                 GW ET     =           0.0000
     SURFACE LEAKAGE     =           0.0000       SURFACE LEAKAGE     =           0.0000
           AG WELLS      =           0.0000             AG WELLS      =           0.0000

                TOTAL IN =   105173240.0000                  TOTAL IN =          14.3241

          OUT:                                     OUT:
          ----                                     ----
             STORAGE     =    18253774.0000               STORAGE     =           1.2860
       CONSTANT HEAD     =           0.0000         CONSTANT HEAD     =           0.0000
     HEAD DEP BOUNDS     =     2368212.5000       HEAD DEP BOUNDS     =           0.2942
      STREAM LEAKAGE     =    84528896.0000        STREAM LEAKAGE     =          12.6279
        UZF RECHARGE     =           0.0000          UZF RECHARGE     =           0.0000
               GW ET     =       26234.3320                 GW ET     =           0.1155
     SURFACE LEAKAGE     =           0.0000       SURFACE LEAKAGE     =           0.0000
           AG WELLS      =           0.0000             AG WELLS      =           0.0000

               TOTAL OUT =   105177112.0000                 TOTAL OUT =          14.3237

                IN - OUT =       -3872.0000                  IN - OUT =       4.0150E-04

     PERCENT DISCREPANCY =          -0.00         PERCENT DISCREPANCY =           0.00






         TIME SUMMARY AT END OF TIME STEP    2 IN STRESS PERIOD    5
                    SECONDS     MINUTES      HOURS       DAYS        YEARS
                    -----------------------------------------------------------
   TIME STEP LENGTH  87667.      1461.1      24.352      1.0147     2.77799E-03
 STRESS PERIOD TIME 1.75333E+05  2922.2      48.704      2.0293     5.55598E-03
         TOTAL TIME 8.15173E+06 1.35862E+05  2264.4      94.349     0.25831    
1
 
 SOLVING FOR HEAD 
                                                   Max.-Head-Change                         Max.-Flux-Residual
  Residual-Control   Outer-Iter.   Inner-Iter.     Column Row Layer    Maximum-Head-Change  Column Row Layer    Maximum-Flux-Residual          L2-NORM 
          0                 1           2             4   13     1      -0.1023019877E-01       4   13    1        -0.5984866513E+00      0.1075397019E+01
          0                 2           2             4    7     1      -0.1155394752E-01       5    6    1        -0.6220391600E+00      0.1522279809E+01
          0                 3           2             4    7     1       0.1201672316E-01       5    6    1         0.6635394124E+00      0.1625253368E+01
          0                 4           2             4    7     1      -0.4781854736E-03       4    6    1        -0.2726074419E-01      0.6653788922E-01
          0                 5           1             4    7     1       0.5895549158E-05       4    6    1         0.3454093744E-03      0.8461007613E-03

    ------------------------------------------------
       NWT REQUIRED            5 OUTER ITERATIONS 
       AND A TOTAL OF          9 INNER ITERATIONS.
    ------------------------------------------------

 OUTPUT CONTROL FOR STRESS PERIOD    5   TIME STEP    3
    PRINT BUDGET
    SAVE BUDGET
 UBDSV1 SAVING "         STORAGE" ON UNIT 102 AT TIME STEP 3, STRESS PERIOD 5
 UBDSV2 SAVING "   CONSTANT HEAD" ON UNIT 102 AT TIME STEP 3, STRESS PERIOD 5
 UBDSV1 SAVING "FLOW RIGHT FACE " ON UNIT 102 AT TIME STEP 3, STRESS PERIOD 5
 UBDSV1 SAVING "FLOW FRONT FACE " ON UNIT 102 AT TIME STEP 3, STRESS PERIOD 5

  HEAD DEP BOUNDS   PERIOD    5   STEP     3
 BOUNDARY      1   LAYER   1   ROW    13   COL     1   RATE   -0.294018    
 BOUNDARY      2   LAYER   1   ROW    14   COL     9   RATE    0.285738    



 STREAM LISTING     PERIOD      5   STEP        3

 LAYER ROW COL. STREAM  RCH.  FLOW INTO     FLOW TO   FLOW OUT OF   OVRLND.     DIRECT     STREAM       STREAM     STREAM     STREAM   STREAMBED  STREAMBED
                SEG.NO.  NO.  STRM. RCH.    AQUIFER    STRM. RCH.    RUNOFF     PRECIP       ET          HEAD       DEPTH      WIDTH   CONDCTNC.   GRADIENT

   1    1    1     1     1    2.1000E+01  2.2591E-01   2.0774E+01  0.000E+00  0.000E+00  0.000E+00  1.09416E+03  1.115E+00  1.220E+01  5.490E-02  1.372E+00
   1    2    2     1     2    2.0774E+01  3.4916E-01   2.0425E+01  0.000E+00  0.000E+00  0.000E+00  1.08917E+03  1.110E+00  1.214E+01  8.495E-02  1.370E+00
   1    3    3     1     3    2.0425E+01  2.9709E-01   2.0128E+01  0.000E+00  0.000E+00  0.000E+00  1.08352E+03  1.105E+00  1.206E+01  7.238E-02  1.368E+00
   1    3    4     1     4    2.0128E+01  2.7299E-01   1.9855E+01  0.000E+00  0.000E+00  0.000E+00  1.07851E+03  1.100E+00  1.200E+01  6.659E-02  1.367E+00
   1    4    5     2     1    1.7855E+01  3.1056E-01   1.7544E+01  0.000E+00  0.000E+00  0.000E+00  1.07292E+03  9.816E-01  1.200E+01  7.800E-02  1.327E+00
   1    5    6     2     2    1.7544E+01  2.3834E-01   1.7306E+01  0.000E+00  0.000E+00  0.000E+00  1.06748E+03  9.724E-01  1.200E+01  6.000E-02  1.324E+00
   1    6    6     2     3    1.7306E+01  2.3786E-01   1.7068E+01  0.000E+00  0.000E+00  0.000E+00  1.06276E+03  9.644E-01  1.200E+01  6.000E-02  1.321E+00
   1    7    6     2     4    1.7068E+01  2.3738E-01   1.6831E+01  0.000E+00  0.000E+00  0.000E+00  1.05803E+03  9.564E-01  1.200E+01  6.000E-02  1.319E+00
   1    8    6     2     5    1.6831E+01  2.3690E-01   1.6594E+01  0.000E+00  0.000E+00  0.000E+00  1.05331E+03  9.483E-01  1.200E+01  6.000E-02  1.316E+00
   1    3    5     3     1    2.0000E+00  2.8252E-01   1.7175E+00  0.000E+00  0.000E+00  0.000E+00  1.07555E+03  1.909E+00  9.636E+00  7.227E-02  1.955E+00
   1    3    6     3     2    1.7175E+00  2.4905E-01   1.4684E+00  0.000E+00  0.000E+00  0.000E+00  1.07264E+03  1.727E+00  8.909E+00  6.682E-02  1.864E+00
   1    3    7     3     3    1.4684E+00  1.9718E-01   1.2712E+00  0.000E+00  0.000E+00  0.000E+00  1.06987E+03  1.555E+00  8.218E+00  5.547E-02  1.777E+00
   1    4    8     3     4    1.2712E+00  2.2567E-01   1.0456E+00  0.000E+00  0.000E+00  0.000E+00  1.06682E+03  1.364E+00  7.455E+00  6.709E-02  1.682E+00
   1    5    8     3     5    1.0456E+00  1.5790E-01   8.8768E-01  0.000E+00  0.000E+00  0.000E+00  1.06362E+03  1.164E+00  6.655E+00  4.991E-02  1.582E+00
   1    6    8     3     6    8.8768E-01  5.5980E-02   8.3170E-01  0.000E+00  0.000E+00  0.000E+00  1.06158E+03  1.036E+00  6.145E+00  1.844E-02  1.518E+00
   1    5   10     4     1    1.0000E+01  9.0919E-02   9.9091E+00  0.000E+00  0.000E+00  0.000E+00  1.07836E+03  6.368E-01  1.000E+01  2.500E-02  1.212E+00
   1    5    9     4     2    9.9091E+00  1.8158E-01   9.7275E+00  0.000E+00  0.000E+00  0.000E+00  1.07154E+03  6.315E-01  1.000E+01  5.000E-02  1.211E+00
   1    6    8     4     3    9.7275E+00  1.2689E-01   9.6006E+00  0.000E+00  0.000E+00  0.000E+00  1.06381E+03  6.256E-01  1.000E+01  3.500E-02  1.209E+00
   1    6    8     5     1    1.0432E+01  2.2686E-01   1.0205E+01  0.000E+00  0.000E+00  0.000E+00  1.05868E+03  6.790E-01  1.542E+01  6.166E-02  1.226E+00
   1    7    7     5     2    1.0205E+01  2.7894E-01   9.9265E+00  0.000E+00  0.000E+00  0.000E+00  1.05417E+03  6.732E-01  1.519E+01  7.594E-02  1.224E+00
   1    8    7     5     3    9.9265E+00  1.9221E-01   9.7343E+00  0.000E+00  0.000E+00  0.000E+00  1.04992E+03  6.676E-01  1.497E+01  5.241E-02  1.223E+00
   1    8    6     5     4    9.7343E+00  1.3577E-01   9.5985E+00  0.000E+00  0.000E+00  0.000E+00  1.04691E+03  6.637E-01  1.482E+01  3.706E-02  1.221E+00
   1    9    6     6     1    2.2472E+01  2.4850E-01   2.2224E+01  0.000E+00  0.000E+00  0.000E+00  1.04387E+03  1.142E+00  1.200E+01  6.000E-02  1.381E+00
   1   10    7     6     2    2.2224E+01  2.4804E-01   2.1976E+01  0.000E+00  0.000E+00  0.000E+00  1.03932E+03  1.134E+00  1.200E+01  6.000E-02  1.378E+00
   1   11    7     6     3    2.1976E+01  2.4758E-01   2.1728E+01  0.000E+00  0.000E+00  0.000E+00  1.03476E+03  1.126E+00  1.200E+01  6.000E-02  1.375E+00
   1   12    7     6     4    2.1728E+01  2.4712E-01   2.1481E+01  0.000E+00  0.000E+00  0.000E+00  1.03021E+03  1.119E+00  1.200E+01  6.000E-02  1.373E+00
   1   13    7     6     5    2.1481E+01 -2.5882E-02   2.1507E+01  0.000E+00  0.000E+00  0.000E+00  1.02702E+03  1.115E+00  1.200E+01  2.400E-01 -3.595E-02
   1   14    9     7     1    1.5000E+02  1.3355E+00   1.4866E+02  0.000E+00  0.000E+00  0.000E+00  1.03987E+03  2.288E+00  5.529E+01  5.593E-01  7.959E-01
   1   13    8     7     2    1.4866E+02  1.8266E+00   1.4684E+02  0.000E+00  0.000E+00  0.000E+00  1.03478E+03  2.279E+00  5.526E+01  6.148E-01  9.904E-01
   1   13    7     7     3    1.4684E+02  1.4284E+00   1.4541E+02  0.000E+00  0.000E+00  0.000E+00  1.02969E+03  2.271E+00  5.522E+01  5.585E-01  8.526E-01
   1   13    6     8     1    1.6692E+02  8.4054E-01   1.6608E+02  0.000E+00  0.000E+00  0.000E+00  1.02480E+03  2.929E+00  4.247E+01  4.328E-01  6.473E-01
   1   13    5     8     2    1.6608E+02  9.2034E-02   1.6598E+02  0.000E+00  0.000E+00  0.000E+00  1.01855E+03  2.926E+00  4.243E+01  4.324E-01  7.095E-02
   1   13    4     8     3    1.6598E+02 -3.1038E+00   1.6909E+02  0.000E+00  0.000E+00  0.000E+00  1.01231E+03  2.936E+00  4.257E+01  4.338E+00 -2.385E-01
   1   13    3     8     4    1.6909E+02 -4.2037E+00   1.7329E+02  0.000E+00  0.000E+00  0.000E+00  1.00608E+03  2.960E+00  4.292E+01  4.374E+00 -3.204E-01
   1   13    2     8     5    1.7329E+02 -3.1448E+00   1.7644E+02  0.000E+00  0.000E+00  0.000E+00  9.99859E+02  2.984E+00  4.326E+01  4.409E+00 -2.378E-01
   1   13    1     8     6    1.7644E+02 -2.2918E+00   1.7873E+02  0.000E+00  0.000E+00  0.000E+00  9.94876E+02  3.001E+00  4.351E+01  2.660E+00 -2.871E-01
   1    8    6     9     1    3.7200E+00  0.0000E+00   3.7200E+00  0.000E+00  0.000E+00  0.000E+00  1.08000E+03  1.252E+00  4.000E+00  0.000E+00  1.417E+00
   1    8    5     9     2    3.7200E+00  0.0000E+00   3.7200E+00  0.000E+00  0.000E+00  0.000E+00  1.07950E+03  1.252E+00  4.000E+00  0.000E+00  1.417E+00



 UBDSV3 SAVING "           GW ET" ON UNIT  61 AT TIME STEP 3, STRESS PERIOD 5
 UBDSV3 SAVING "    UZF RECHARGE" ON UNIT  61 AT TIME STEP 3, STRESS PERIOD 5
 UBDSV3 SAVING " SURFACE LEAKAGE" ON UNIT  61 AT TIME STEP 3, STRESS PERIOD 5
 UBDSV3 SAVING "       HORT+DUNN" ON UNIT  61 AT TIME STEP 3, STRESS PERIOD 5
 UBDSV3 SAVING "  STORAGE CHANGE" ON UNIT  61 AT TIME STEP 3, STRESS PERIOD 5


UNSATURATED ZONE PACKAGE VOLUMETRIC BUDGET FOR  TIME STEP     3 STRESS PERIOD    5
  ------------------------------------------------------------------------------



     CUMULATIVE VOLUMES      L**3       RATES FOR THIS TIME STEP      L**3/T
     ------------------                 ------------------------

           IN:                                      IN:
           ---                                      ---
        INFILTRATION =     7963900.8127          INFILTRATION =           4.5676

          OUT:                                     OUT:
          ----                                     ----
              UZF ET =     7806769.1125                UZF ET =           4.5675
        UZF RECHARGE =       73224.0000          UZF RECHARGE =       0.0000E+00

            IN - OUT =       83907.7001              IN - OUT =       7.4446E-05

          STORAGE:                                 STORAGE:
          --------                                 --------
      STORAGE CHANGE =       83907.1335        STORAGE CHANGE =       7.4833E-05

 PERCENT DISCREPANCY IS DIFFERENCE BETWEEN IN-OUT MINUS CHANGE IN STORAGE
 DIVIDED BY THE AVERAGE OF IN AND OUT TIMES 100

 PERCENT DISCREPANCY =           0.00     PERCENT DISCREPANCY =          -0.00






 

            AG WELLS      PERIOD    5   STEP   3
 AG WELL      1   LAYER   1   ROW     6   COL     4   RATE   -3.973643E-08
 AG WELL      2   LAYER   1   ROW     6   COL     5   RATE   -3.973643E-08
 AG WELL      3   LAYER   1   ROW     7   COL     4   RATE   -3.973643E-08
 AG WELL      4   LAYER   1   ROW     7   COL     5   RATE   -3.973643E-08
 AG WELL      5   LAYER   1   ROW     8   COL     4   RATE   -3.973643E-08
 AG WELL      6   LAYER   1   ROW     8   COL     5   RATE   -3.973643E-08
 
 

   DIVERSION SEGMENTS     PERIOD    5   STEP   3
 SEGMENT      9   RATE     3.72000    
 
 

        SW IRRIGATION     PERIOD    5   STEP   3
 SEGMENT      9   ROW     6   COL     4   RATE    0.620012    
 SEGMENT      9   ROW     6   COL     5   RATE    0.620012    
 SEGMENT      9   ROW     7   COL     4   RATE    0.620012    
 SEGMENT      9   ROW     7   COL     5   RATE    0.620012    
 SEGMENT      9   ROW     8   COL     4   RATE    0.620012    
 SEGMENT      9   ROW     8   COL     5   RATE    0.620012    
 
 

        GW IRRIGATION     PERIOD    5   STEP   3
 AG WELL      1   ROW     6   COL     4   RATE    3.973643E-08
 AG WELL      2   ROW     6   COL     5   RATE    3.973643E-08
 AG WELL      3   ROW     7   COL     4   RATE    3.973643E-08
 AG WELL      4   ROW     7   COL     5   RATE    3.973643E-08
 AG WELL      5   ROW     8   COL     4   RATE    3.973643E-08
 AG WELL      6   ROW     8   COL     5   RATE    3.973643E-08
 
1
  VOLUMETRIC BUDGET FOR AGRICULTURAL FIELDS AT  END OF TIME STEP    3, STRESS PERIOD   5
  ------------------------------------------------------------------------------

     CUMULATIVE VOLUMES      L**3       RATES FOR THIS TIME STEP      L**3/T
     ------------------                 ------------------------

           IN:                                      IN:
           ---                                      ---
               AG WELLS  =       2.0901E-02                 AG WELLS  =       2.3842E-07
      DIVERSION SEGMENTS =      980990.1250        DIVERSION SEGMENTS =           3.7200
       IRRIGATION PONDS  =           0.0000         IRRIGATION PONDS  =           0.0000
           GW IRRIGATION =           0.0000             GW IRRIGATION =           0.0000
           SW IRRIGATION =           0.0000             SW IRRIGATION =           0.0000
        SYSTEM LOSSES GW =           0.0000          SYSTEM LOSSES GW =           0.0000
        SYSTEM LOSSES SW =           0.0000          SYSTEM LOSSES SW =           0.0000

                TOTAL IN =      980990.1250                  TOTAL IN =           3.7200

          OUT:                                     OUT:
          ----                                     ----
               AG WELLS  =           0.0000                 AG WELLS  =           0.0000
      DIVERSION SEGMENTS =           0.0000        DIVERSION SEGMENTS =           0.0000
       IRRIGATION PONDS  =           0.0000         IRRIGATION PONDS  =           0.0000
           GW IRRIGATION =       2.0901E-02             GW IRRIGATION =       2.3842E-07
           SW IRRIGATION =      981009.6875             SW IRRIGATION =           3.7201
        SYSTEM LOSSES GW =           0.0000          SYSTEM LOSSES GW =           0.0000
        SYSTEM LOSSES SW =           0.0000          SYSTEM LOSSES SW =           0.0000

               TOTAL OUT =      981009.6875                 TOTAL OUT =           3.7201

                IN - OUT =         -19.5625                  IN - OUT =      -7.4387E-05

     PERCENT DISCREPANCY =          -0.00         PERCENT DISCREPANCY =          -0.00



1
  VOLUMETRIC BUDGET FOR ENTIRE MODEL AT END OF TIME STEP    3, STRESS PERIOD   5
  ------------------------------------------------------------------------------

     CUMULATIVE VOLUMES      L**3       RATES FOR THIS TIME STEP      L**3/T
     ------------------                 ------------------------

           IN:                                      IN:
           ---                                      ---
             STORAGE     =     5137087.0000               STORAGE     =           2.7667
       CONSTANT HEAD     =           0.0000         CONSTANT HEAD     =           0.0000
     HEAD DEP BOUNDS     =     2353877.7500       HEAD DEP BOUNDS     =           0.2857
      STREAM LEAKAGE     =    98869208.0000        STREAM LEAKAGE     =          11.3220
        UZF RECHARGE     =       73223.9531          UZF RECHARGE     =           0.0000
               GW ET     =           0.0000                 GW ET     =           0.0000
     SURFACE LEAKAGE     =           0.0000       SURFACE LEAKAGE     =           0.0000
           AG WELLS      =           0.0000             AG WELLS      =           0.0000

                TOTAL IN =   106433400.0000                  TOTAL IN =          14.3744

          OUT:                                     OUT:
          ----                                     ----
             STORAGE     =    18360754.0000               STORAGE     =           1.2203
       CONSTANT HEAD     =           0.0000         CONSTANT HEAD     =           0.0000
     HEAD DEP BOUNDS     =     2393988.0000       HEAD DEP BOUNDS     =           0.2940
      STREAM LEAKAGE     =    85648400.0000        STREAM LEAKAGE     =          12.7700
        UZF RECHARGE     =           0.0000          UZF RECHARGE     =           0.0000
               GW ET     =       34126.8789                 GW ET     =       9.0029E-02
     SURFACE LEAKAGE     =           0.0000       SURFACE LEAKAGE     =           0.0000
           AG WELLS      =       2.0901E-02             AG WELLS      =       2.3842E-07

               TOTAL OUT =   106437272.0000                 TOTAL OUT =          14.3744

                IN - OUT =       -3872.0000                  IN - OUT =       3.5286E-05

     PERCENT DISCREPANCY =          -0.00         PERCENT DISCREPANCY =           0.00






         TIME SUMMARY AT END OF TIME STEP    3 IN STRESS PERIOD    5
                    SECONDS     MINUTES      HOURS       DAYS        YEARS
                    -----------------------------------------------------------
   TIME STEP LENGTH  87667.      1461.1      24.352      1.0147     2.77799E-03
 STRESS PERIOD TIME 2.63000E+05  4383.3      73.056      3.0440     8.33397E-03
         TOTAL TIME 8.23939E+06 1.37323E+05  2288.7      95.363     0.26109    
1
 
 SOLVING FOR HEAD 
                                                   Max.-Head-Change                         Max.-Flux-Residual
  Residual-Control   Outer-Iter.   Inner-Iter.     Column Row Layer    Maximum-Head-Change  Column Row Layer    Maximum-Flux-Residual          L2-NORM 
          0                 1           2             2   13     1      -0.9109216637E-02       4   13    1        -0.5230614228E+00      0.9721084471E+00
          0                 2           2             4   13     1       0.8629739191E-03       4   13    1         0.5188203188E-01      0.9492051443E-01
          0                 3           2             4    7     1      -0.1154324379E-01       4    8    1        -0.6199777189E+00      0.1525248784E+01
          0                 4           2             4    7     1       0.1201621392E-01       4    8    1         0.6634047830E+00      0.1625075958E+01
          0                 5           2             4    7     1      -0.4782833221E-03       4    6    1        -0.2727738553E-01      0.6656238879E-01
          0                 6           1             4    7     1       0.5901815048E-05       4    6    1         0.3459449772E-03      0.8466567646E-03

    ------------------------------------------------
       NWT REQUIRED            6 OUTER ITERATIONS 
       AND A TOTAL OF         11 INNER ITERATIONS.
    ------------------------------------------------

 OUTPUT CONTROL FOR STRESS PERIOD    5   TIME STEP    4
    PRINT BUDGET
    SAVE BUDGET
 UBDSV1 SAVING "         STORAGE" ON UNIT 102 AT TIME STEP 4, STRESS PERIOD 5
 UBDSV2 SAVING "   CONSTANT HEAD" ON UNIT 102 AT TIME STEP 4, STRESS PERIOD 5
 UBDSV1 SAVING "FLOW RIGHT FACE " ON UNIT 102 AT TIME STEP 4, STRESS PERIOD 5
 UBDSV1 SAVING "FLOW FRONT FACE " ON UNIT 102 AT TIME STEP 4, STRESS PERIOD 5

  HEAD DEP BOUNDS   PERIOD    5   STEP     4
 BOUNDARY      1   LAYER   1   ROW    13   COL     1   RATE   -0.293811    
 BOUNDARY      2   LAYER   1   ROW    14   COL     9   RATE    0.285739    



 STREAM LISTING     PERIOD      5   STEP        4

 LAYER ROW COL. STREAM  RCH.  FLOW INTO     FLOW TO   FLOW OUT OF   OVRLND.     DIRECT     STREAM       STREAM     STREAM     STREAM   STREAMBED  STREAMBED
                SEG.NO.  NO.  STRM. RCH.    AQUIFER    STRM. RCH.    RUNOFF     PRECIP       ET          HEAD       DEPTH      WIDTH   CONDCTNC.   GRADIENT

   1    1    1     1     1    2.1000E+01  2.2591E-01   2.0774E+01  0.000E+00  0.000E+00  0.000E+00  1.09416E+03  1.115E+00  1.220E+01  5.490E-02  1.372E+00
   1    2    2     1     2    2.0774E+01  3.4916E-01   2.0425E+01  0.000E+00  0.000E+00  0.000E+00  1.08917E+03  1.110E+00  1.214E+01  8.495E-02  1.370E+00
   1    3    3     1     3    2.0425E+01  2.9709E-01   2.0128E+01  0.000E+00  0.000E+00  0.000E+00  1.08352E+03  1.105E+00  1.206E+01  7.238E-02  1.368E+00
   1    3    4     1     4    2.0128E+01  2.7299E-01   1.9855E+01  0.000E+00  0.000E+00  0.000E+00  1.07851E+03  1.100E+00  1.200E+01  6.659E-02  1.367E+00
   1    4    5     2     1    1.7855E+01  3.1056E-01   1.7544E+01  0.000E+00  0.000E+00  0.000E+00  1.07292E+03  9.816E-01  1.200E+01  7.800E-02  1.327E+00
   1    5    6     2     2    1.7544E+01  2.3834E-01   1.7306E+01  0.000E+00  0.000E+00  0.000E+00  1.06748E+03  9.724E-01  1.200E+01  6.000E-02  1.324E+00
   1    6    6     2     3    1.7306E+01  2.3786E-01   1.7068E+01  0.000E+00  0.000E+00  0.000E+00  1.06276E+03  9.644E-01  1.200E+01  6.000E-02  1.321E+00
   1    7    6     2     4    1.7068E+01  2.3738E-01   1.6831E+01  0.000E+00  0.000E+00  0.000E+00  1.05803E+03  9.564E-01  1.200E+01  6.000E-02  1.319E+00
   1    8    6     2     5    1.6831E+01  2.3690E-01   1.6594E+01  0.000E+00  0.000E+00  0.000E+00  1.05331E+03  9.483E-01  1.200E+01  6.000E-02  1.316E+00
   1    3    5     3     1    2.0000E+00  2.8252E-01   1.7175E+00  0.000E+00  0.000E+00  0.000E+00  1.07555E+03  1.909E+00  9.636E+00  7.227E-02  1.955E+00
   1    3    6     3     2    1.7175E+00  2.4905E-01   1.4684E+00  0.000E+00  0.000E+00  0.000E+00  1.07264E+03  1.727E+00  8.909E+00  6.682E-02  1.864E+00
   1    3    7     3     3    1.4684E+00  1.9718E-01   1.2712E+00  0.000E+00  0.000E+00  0.000E+00  1.06987E+03  1.555E+00  8.218E+00  5.547E-02  1.777E+00
   1    4    8     3     4    1.2712E+00  2.2567E-01   1.0456E+00  0.000E+00  0.000E+00  0.000E+00  1.06682E+03  1.364E+00  7.455E+00  6.709E-02  1.682E+00
   1    5    8     3     5    1.0456E+00  1.5790E-01   8.8768E-01  0.000E+00  0.000E+00  0.000E+00  1.06362E+03  1.164E+00  6.655E+00  4.991E-02  1.582E+00
   1    6    8     3     6    8.8768E-01  5.5980E-02   8.3170E-01  0.000E+00  0.000E+00  0.000E+00  1.06158E+03  1.036E+00  6.145E+00  1.844E-02  1.518E+00
   1    5   10     4     1    1.0000E+01  9.0919E-02   9.9091E+00  0.000E+00  0.000E+00  0.000E+00  1.07836E+03  6.368E-01  1.000E+01  2.500E-02  1.212E+00
   1    5    9     4     2    9.9091E+00  1.8158E-01   9.7275E+00  0.000E+00  0.000E+00  0.000E+00  1.07154E+03  6.315E-01  1.000E+01  5.000E-02  1.211E+00
   1    6    8     4     3    9.7275E+00  1.2689E-01   9.6006E+00  0.000E+00  0.000E+00  0.000E+00  1.06381E+03  6.256E-01  1.000E+01  3.500E-02  1.209E+00
   1    6    8     5     1    1.0432E+01  2.2686E-01   1.0205E+01  0.000E+00  0.000E+00  0.000E+00  1.05868E+03  6.790E-01  1.542E+01  6.166E-02  1.226E+00
   1    7    7     5     2    1.0205E+01  2.7894E-01   9.9265E+00  0.000E+00  0.000E+00  0.000E+00  1.05417E+03  6.732E-01  1.519E+01  7.594E-02  1.224E+00
   1    8    7     5     3    9.9265E+00  1.9221E-01   9.7343E+00  0.000E+00  0.000E+00  0.000E+00  1.04992E+03  6.676E-01  1.497E+01  5.241E-02  1.223E+00
   1    8    6     5     4    9.7343E+00  1.3577E-01   9.5985E+00  0.000E+00  0.000E+00  0.000E+00  1.04691E+03  6.637E-01  1.482E+01  3.706E-02  1.221E+00
   1    9    6     6     1    2.2472E+01  2.4850E-01   2.2224E+01  0.000E+00  0.000E+00  0.000E+00  1.04387E+03  1.142E+00  1.200E+01  6.000E-02  1.381E+00
   1   10    7     6     2    2.2224E+01  2.4804E-01   2.1976E+01  0.000E+00  0.000E+00  0.000E+00  1.03932E+03  1.134E+00  1.200E+01  6.000E-02  1.378E+00
   1   11    7     6     3    2.1976E+01  2.4758E-01   2.1728E+01  0.000E+00  0.000E+00  0.000E+00  1.03476E+03  1.126E+00  1.200E+01  6.000E-02  1.375E+00
   1   12    7     6     4    2.1728E+01  2.4712E-01   2.1481E+01  0.000E+00  0.000E+00  0.000E+00  1.03021E+03  1.119E+00  1.200E+01  6.000E-02  1.373E+00
   1   13    7     6     5    2.1481E+01 -2.5870E-02   2.1507E+01  0.000E+00  0.000E+00  0.000E+00  1.02702E+03  1.115E+00  1.200E+01  2.400E-01 -3.593E-02
   1   14    9     7     1    1.5000E+02  1.3355E+00   1.4866E+02  0.000E+00  0.000E+00  0.000E+00  1.03987E+03  2.288E+00  5.529E+01  5.593E-01  7.959E-01
   1   13    8     7     2    1.4866E+02  1.8264E+00   1.4684E+02  0.000E+00  0.000E+00  0.000E+00  1.03478E+03  2.279E+00  5.526E+01  6.148E-01  9.903E-01
   1   13    7     7     3    1.4684E+02  1.4285E+00   1.4541E+02  0.000E+00  0.000E+00  0.000E+00  1.02969E+03  2.271E+00  5.522E+01  5.585E-01  8.526E-01
   1   13    6     8     1    1.6692E+02  8.4116E-01   1.6608E+02  0.000E+00  0.000E+00  0.000E+00  1.02480E+03  2.929E+00  4.247E+01  4.328E-01  6.478E-01
   1   13    5     8     2    1.6608E+02  9.2484E-02   1.6598E+02  0.000E+00  0.000E+00  0.000E+00  1.01855E+03  2.926E+00  4.243E+01  4.324E-01  7.130E-02
   1   13    4     8     3    1.6598E+02 -3.0637E+00   1.6905E+02  0.000E+00  0.000E+00  0.000E+00  1.01231E+03  2.936E+00  4.257E+01  4.338E+00 -2.354E-01
   1   13    3     8     4    1.6905E+02 -4.1653E+00   1.7321E+02  0.000E+00  0.000E+00  0.000E+00  1.00608E+03  2.960E+00  4.291E+01  4.373E+00 -3.175E-01
   1   13    2     8     5    1.7321E+02 -3.1050E+00   1.7632E+02  0.000E+00  0.000E+00  0.000E+00  9.99858E+02  2.983E+00  4.325E+01  4.408E+00 -2.348E-01
   1   13    1     8     6    1.7632E+02 -2.2788E+00   1.7860E+02  0.000E+00  0.000E+00  0.000E+00  9.94875E+02  3.000E+00  4.350E+01  2.660E+00 -2.856E-01
   1    8    6     9     1    3.7200E+00  0.0000E+00   3.7200E+00  0.000E+00  0.000E+00  0.000E+00  1.08000E+03  1.252E+00  4.000E+00  0.000E+00  1.417E+00
   1    8    5     9     2    3.7200E+00  0.0000E+00   3.7200E+00  0.000E+00  0.000E+00  0.000E+00  1.07950E+03  1.252E+00  4.000E+00  0.000E+00  1.417E+00



 UBDSV3 SAVING "           GW ET" ON UNIT  61 AT TIME STEP 4, STRESS PERIOD 5
 UBDSV3 SAVING "    UZF RECHARGE" ON UNIT  61 AT TIME STEP 4, STRESS PERIOD 5
 UBDSV3 SAVING " SURFACE LEAKAGE" ON UNIT  61 AT TIME STEP 4, STRESS PERIOD 5
 UBDSV3 SAVING "       HORT+DUNN" ON UNIT  61 AT TIME STEP 4, STRESS PERIOD 5
 UBDSV3 SAVING "  STORAGE CHANGE" ON UNIT  61 AT TIME STEP 4, STRESS PERIOD 5


UNSATURATED ZONE PACKAGE VOLUMETRIC BUDGET FOR  TIME STEP     4 STRESS PERIOD    5
  ------------------------------------------------------------------------------



     CUMULATIVE VOLUMES      L**3       RATES FOR THIS TIME STEP      L**3/T
     ------------------                 ------------------------

           IN:                                      IN:
           ---                                      ---
        INFILTRATION =     8364324.6913          INFILTRATION =           4.5676

          OUT:                                     OUT:
          ----                                     ----
              UZF ET =     8207186.6123                UZF ET =           4.5675
        UZF RECHARGE =       73224.0000          UZF RECHARGE =       0.0000E+00

            IN - OUT =       83914.0790              IN - OUT =       7.2658E-05

          STORAGE:                                 STORAGE:
          --------                                 --------
      STORAGE CHANGE =       83913.5295        STORAGE CHANGE =       7.2958E-05

 PERCENT DISCREPANCY IS DIFFERENCE BETWEEN IN-OUT MINUS CHANGE IN STORAGE
 DIVIDED BY THE AVERAGE OF IN AND OUT TIMES 100

 PERCENT DISCREPANCY =           0.00     PERCENT DISCREPANCY =           0.00






 

            AG WELLS      PERIOD    5   STEP   4
 AG WELL      1   LAYER   1   ROW     6   COL     4   RATE     0.00000    
 AG WELL      2   LAYER   1   ROW     6   COL     5   RATE     0.00000    
 AG WELL      3   LAYER   1   ROW     7   COL     4   RATE     0.00000    
 AG WELL      4   LAYER   1   ROW     7   COL     5   RATE     0.00000    
 AG WELL      5   LAYER   1   ROW     8   COL     4   RATE     0.00000    
 AG WELL      6   LAYER   1   ROW     8   COL     5   RATE     0.00000    
 
 

   DIVERSION SEGMENTS     PERIOD    5   STEP   4
 SEGMENT      9   RATE     3.72000    
 
 

        SW IRRIGATION     PERIOD    5   STEP   4
 SEGMENT      9   ROW     6   COL     4   RATE    0.620012    
 SEGMENT      9   ROW     6   COL     5   RATE    0.620012    
 SEGMENT      9   ROW     7   COL     4   RATE    0.620012    
 SEGMENT      9   ROW     7   COL     5   RATE    0.620012    
 SEGMENT      9   ROW     8   COL     4   RATE    0.620012    
 SEGMENT      9   ROW     8   COL     5   RATE    0.620012    
 
 

        GW IRRIGATION     PERIOD    5   STEP   4
 AG WELL      1   ROW     6   COL     4   RATE     0.00000    
 AG WELL      2   ROW     6   COL     5   RATE     0.00000    
 AG WELL      3   ROW     7   COL     4   RATE     0.00000    
 AG WELL      4   ROW     7   COL     5   RATE     0.00000    
 AG WELL      5   ROW     8   COL     4   RATE     0.00000    
 AG WELL      6   ROW     8   COL     5   RATE     0.00000    
 
1
  VOLUMETRIC BUDGET FOR AGRICULTURAL FIELDS AT  END OF TIME STEP    4, STRESS PERIOD   5
  ------------------------------------------------------------------------------

     CUMULATIVE VOLUMES      L**3       RATES FOR THIS TIME STEP      L**3/T
     ------------------                 ------------------------

           IN:                                      IN:
           ---                                      ---
               AG WELLS  =       2.0901E-02                 AG WELLS  =           0.0000
      DIVERSION SEGMENTS =     1307110.0000        DIVERSION SEGMENTS =           3.7200
       IRRIGATION PONDS  =           0.0000         IRRIGATION PONDS  =           0.0000
           GW IRRIGATION =           0.0000             GW IRRIGATION =           0.0000
           SW IRRIGATION =           0.0000             SW IRRIGATION =           0.0000
        SYSTEM LOSSES GW =           0.0000          SYSTEM LOSSES GW =           0.0000
        SYSTEM LOSSES SW =           0.0000          SYSTEM LOSSES SW =           0.0000

                TOTAL IN =     1307110.0000                  TOTAL IN =           3.7200

          OUT:                                     OUT:
          ----                                     ----
               AG WELLS  =           0.0000                 AG WELLS  =           0.0000
      DIVERSION SEGMENTS =           0.0000        DIVERSION SEGMENTS =           0.0000
       IRRIGATION PONDS  =           0.0000         IRRIGATION PONDS  =           0.0000
           GW IRRIGATION =       2.0901E-02             GW IRRIGATION =           0.0000
           SW IRRIGATION =     1307136.0000             SW IRRIGATION =           3.7201
        SYSTEM LOSSES GW =           0.0000          SYSTEM LOSSES GW =           0.0000
        SYSTEM LOSSES SW =           0.0000          SYSTEM LOSSES SW =           0.0000

               TOTAL OUT =     1307136.0000                 TOTAL OUT =           3.7201

                IN - OUT =         -26.0000                  IN - OUT =      -7.4148E-05

     PERCENT DISCREPANCY =          -0.00         PERCENT DISCREPANCY =          -0.00



1
  VOLUMETRIC BUDGET FOR ENTIRE MODEL AT END OF TIME STEP    4, STRESS PERIOD   5
  ------------------------------------------------------------------------------

     CUMULATIVE VOLUMES      L**3       RATES FOR THIS TIME STEP      L**3/T
     ------------------                 ------------------------

           IN:                                      IN:
           ---                                      ---
             STORAGE     =     5363206.0000               STORAGE     =           2.5793
       CONSTANT HEAD     =           0.0000         CONSTANT HEAD     =           0.0000
     HEAD DEP BOUNDS     =     2378927.5000       HEAD DEP BOUNDS     =           0.2857
      STREAM LEAKAGE     =    99861856.0000        STREAM LEAKAGE     =          11.3230
        UZF RECHARGE     =       73223.9531          UZF RECHARGE     =           0.0000
               GW ET     =           0.0000                 GW ET     =           0.0000
     SURFACE LEAKAGE     =           0.0000       SURFACE LEAKAGE     =           0.0000
           AG WELLS      =           0.0000             AG WELLS      =           0.0000

                TOTAL IN =   107677216.0000                  TOTAL IN =          14.1880

          OUT:                                     OUT:
          ----                                     ----
             STORAGE     =    18464928.0000               STORAGE     =           1.1883
       CONSTANT HEAD     =           0.0000         CONSTANT HEAD     =           0.0000
     HEAD DEP BOUNDS     =     2419745.5000       HEAD DEP BOUNDS     =           0.2938
      STREAM LEAKAGE     =    86756392.0000        STREAM LEAKAGE     =          12.6387
        UZF RECHARGE     =           0.0000          UZF RECHARGE     =           0.0000
               GW ET     =       40019.2461                 GW ET     =       6.7213E-02
     SURFACE LEAKAGE     =           0.0000       SURFACE LEAKAGE     =           0.0000
           AG WELLS      =       2.0901E-02             AG WELLS      =           0.0000

               TOTAL OUT =   107681080.0000                 TOTAL OUT =          14.1880

                IN - OUT =       -3864.0000                  IN - OUT =       3.5286E-05

     PERCENT DISCREPANCY =          -0.00         PERCENT DISCREPANCY =           0.00






         TIME SUMMARY AT END OF TIME STEP    4 IN STRESS PERIOD    5
                    SECONDS     MINUTES      HOURS       DAYS        YEARS
                    -----------------------------------------------------------
   TIME STEP LENGTH  87667.      1461.1      24.352      1.0147     2.77799E-03
 STRESS PERIOD TIME 3.50667E+05  5844.4      97.407      4.0586     1.11120E-02
         TOTAL TIME 8.32706E+06 1.38784E+05  2313.1      96.378     0.26387    
1
 
 SOLVING FOR HEAD 
                                                   Max.-Head-Change                         Max.-Flux-Residual
  Residual-Control   Outer-Iter.   Inner-Iter.     Column Row Layer    Maximum-Head-Change  Column Row Layer    Maximum-Flux-Residual          L2-NORM 
          0                 1           2             2   13     1      -0.8336282051E-02       2   13    1        -0.4689496666E+00      0.8799402673E+00
          0                 2           2             2   13     1       0.7791676711E-03       4   13    1         0.4525713499E-01      0.8595099641E-01
          0                 3           2             4    7     1      -0.1154322255E-01       4    8    1        -0.6199767723E+00      0.1525237655E+01
          0                 4           2             4    7     1       0.1201621016E-01       4    8    1         0.6634044385E+00      0.1625079898E+01
          0                 5           2             4    7     1      -0.4782871945E-03       4    6    1        -0.2728896316E-01      0.6656734276E-01
          0                 6           1             4    7     1       0.5903907057E-05       4    6    1         0.3462110185E-03      0.8470078997E-03

    ------------------------------------------------
       NWT REQUIRED            6 OUTER ITERATIONS 
       AND A TOTAL OF         11 INNER ITERATIONS.
    ------------------------------------------------

 NO OUTPUT CONTROL FOR STRESS PERIOD    5   TIME STEP    5
 
 SOLVING FOR HEAD 
                                                   Max.-Head-Change                         Max.-Flux-Residual
  Residual-Control   Outer-Iter.   Inner-Iter.     Column Row Layer    Maximum-Head-Change  Column Row Layer    Maximum-Flux-Residual          L2-NORM 
          0                 1           2             2   13     1      -0.7619091420E-02       2   13    1        -0.4286273802E+00      0.7977743236E+00
          0                 2           2             2   13     1       0.7129147315E-03       2   13    1         0.4122656670E-01      0.7795734972E-01
          0                 3           2             4    7     1      -0.1154320402E-01       4    8    1        -0.6199758774E+00      0.1525227753E+01
          0                 4           2             4    7     1       0.1201620837E-01       4    8    1         0.6634041969E+00      0.1625083882E+01
          0                 5           2             4    7     1      -0.4782876405E-03       4    6    1        -0.2730032860E-01      0.6657172845E-01
          0                 6           1             4    7     1       0.5901868144E-05       4    6    1         0.3462359514E-03      0.8467715866E-03

    ------------------------------------------------
       NWT REQUIRED            6 OUTER ITERATIONS 
       AND A TOTAL OF         11 INNER ITERATIONS.
    ------------------------------------------------

 OUTPUT CONTROL FOR STRESS PERIOD    5   TIME STEP    6
    PRINT BUDGET
    SAVE BUDGET
 UBDSV1 SAVING "         STORAGE" ON UNIT 102 AT TIME STEP 6, STRESS PERIOD 5
 UBDSV2 SAVING "   CONSTANT HEAD" ON UNIT 102 AT TIME STEP 6, STRESS PERIOD 5
 UBDSV1 SAVING "FLOW RIGHT FACE " ON UNIT 102 AT TIME STEP 6, STRESS PERIOD 5
 UBDSV1 SAVING "FLOW FRONT FACE " ON UNIT 102 AT TIME STEP 6, STRESS PERIOD 5

  HEAD DEP BOUNDS   PERIOD    5   STEP     6
 BOUNDARY      1   LAYER   1   ROW    13   COL     1   RATE   -0.293420    
 BOUNDARY      2   LAYER   1   ROW    14   COL     9   RATE    0.285740    



 STREAM LISTING     PERIOD      5   STEP        6

 LAYER ROW COL. STREAM  RCH.  FLOW INTO     FLOW TO   FLOW OUT OF   OVRLND.     DIRECT     STREAM       STREAM     STREAM     STREAM   STREAMBED  STREAMBED
                SEG.NO.  NO.  STRM. RCH.    AQUIFER    STRM. RCH.    RUNOFF     PRECIP       ET          HEAD       DEPTH      WIDTH   CONDCTNC.   GRADIENT

   1    1    1     1     1    2.1000E+01  2.2592E-01   2.0774E+01  0.000E+00  0.000E+00  0.000E+00  1.09416E+03  1.115E+00  1.220E+01  5.490E-02  1.372E+00
   1    2    2     1     2    2.0774E+01  3.4916E-01   2.0425E+01  0.000E+00  0.000E+00  0.000E+00  1.08917E+03  1.110E+00  1.214E+01  8.495E-02  1.370E+00
   1    3    3     1     3    2.0425E+01  2.9709E-01   2.0128E+01  0.000E+00  0.000E+00  0.000E+00  1.08352E+03  1.105E+00  1.206E+01  7.238E-02  1.368E+00
   1    3    4     1     4    2.0128E+01  2.7299E-01   1.9855E+01  0.000E+00  0.000E+00  0.000E+00  1.07851E+03  1.100E+00  1.200E+01  6.659E-02  1.367E+00
   1    4    5     2     1    1.7855E+01  3.1056E-01   1.7544E+01  0.000E+00  0.000E+00  0.000E+00  1.07292E+03  9.816E-01  1.200E+01  7.800E-02  1.327E+00
   1    5    6     2     2    1.7544E+01  2.3834E-01   1.7306E+01  0.000E+00  0.000E+00  0.000E+00  1.06748E+03  9.724E-01  1.200E+01  6.000E-02  1.324E+00
   1    6    6     2     3    1.7306E+01  2.3787E-01   1.7068E+01  0.000E+00  0.000E+00  0.000E+00  1.06276E+03  9.644E-01  1.200E+01  6.000E-02  1.321E+00
   1    7    6     2     4    1.7068E+01  2.3738E-01   1.6831E+01  0.000E+00  0.000E+00  0.000E+00  1.05803E+03  9.564E-01  1.200E+01  6.000E-02  1.319E+00
   1    8    6     2     5    1.6831E+01  2.3690E-01   1.6594E+01  0.000E+00  0.000E+00  0.000E+00  1.05331E+03  9.483E-01  1.200E+01  6.000E-02  1.316E+00
   1    3    5     3     1    2.0000E+00  2.8252E-01   1.7175E+00  0.000E+00  0.000E+00  0.000E+00  1.07555E+03  1.909E+00  9.636E+00  7.227E-02  1.955E+00
   1    3    6     3     2    1.7175E+00  2.4905E-01   1.4684E+00  0.000E+00  0.000E+00  0.000E+00  1.07264E+03  1.727E+00  8.909E+00  6.682E-02  1.864E+00
   1    3    7     3     3    1.4684E+00  1.9718E-01   1.2712E+00  0.000E+00  0.000E+00  0.000E+00  1.06987E+03  1.555E+00  8.218E+00  5.547E-02  1.777E+00
   1    4    8     3     4    1.2712E+00  2.2567E-01   1.0456E+00  0.000E+00  0.000E+00  0.000E+00  1.06682E+03  1.364E+00  7.455E+00  6.709E-02  1.682E+00
   1    5    8     3     5    1.0456E+00  1.5790E-01   8.8768E-01  0.000E+00  0.000E+00  0.000E+00  1.06362E+03  1.164E+00  6.655E+00  4.991E-02  1.582E+00
   1    6    8     3     6    8.8768E-01  5.5980E-02   8.3170E-01  0.000E+00  0.000E+00  0.000E+00  1.06158E+03  1.036E+00  6.145E+00  1.844E-02  1.518E+00
   1    5   10     4     1    1.0000E+01  9.0919E-02   9.9091E+00  0.000E+00  0.000E+00  0.000E+00  1.07836E+03  6.368E-01  1.000E+01  2.500E-02  1.212E+00
   1    5    9     4     2    9.9091E+00  1.8158E-01   9.7275E+00  0.000E+00  0.000E+00  0.000E+00  1.07154E+03  6.315E-01  1.000E+01  5.000E-02  1.211E+00
   1    6    8     4     3    9.7275E+00  1.2689E-01   9.6006E+00  0.000E+00  0.000E+00  0.000E+00  1.06381E+03  6.256E-01  1.000E+01  3.500E-02  1.209E+00
   1    6    8     5     1    1.0432E+01  2.2686E-01   1.0205E+01  0.000E+00  0.000E+00  0.000E+00  1.05868E+03  6.790E-01  1.542E+01  6.166E-02  1.226E+00
   1    7    7     5     2    1.0205E+01  2.7894E-01   9.9265E+00  0.000E+00  0.000E+00  0.000E+00  1.05417E+03  6.732E-01  1.519E+01  7.594E-02  1.224E+00
   1    8    7     5     3    9.9265E+00  1.9221E-01   9.7343E+00  0.000E+00  0.000E+00  0.000E+00  1.04992E+03  6.676E-01  1.497E+01  5.241E-02  1.223E+00
   1    8    6     5     4    9.7343E+00  1.3577E-01   9.5985E+00  0.000E+00  0.000E+00  0.000E+00  1.04691E+03  6.637E-01  1.482E+01  3.706E-02  1.221E+00
   1    9    6     6     1    2.2472E+01  2.4850E-01   2.2224E+01  0.000E+00  0.000E+00  0.000E+00  1.04387E+03  1.142E+00  1.200E+01  6.000E-02  1.381E+00
   1   10    7     6     2    2.2224E+01  2.4804E-01   2.1976E+01  0.000E+00  0.000E+00  0.000E+00  1.03932E+03  1.134E+00  1.200E+01  6.000E-02  1.378E+00
   1   11    7     6     3    2.1976E+01  2.4758E-01   2.1728E+01  0.000E+00  0.000E+00  0.000E+00  1.03476E+03  1.126E+00  1.200E+01  6.000E-02  1.375E+00
   1   12    7     6     4    2.1728E+01  2.4712E-01   2.1481E+01  0.000E+00  0.000E+00  0.000E+00  1.03021E+03  1.119E+00  1.200E+01  6.000E-02  1.373E+00
   1   13    7     6     5    2.1481E+01 -2.5839E-02   2.1507E+01  0.000E+00  0.000E+00  0.000E+00  1.02702E+03  1.115E+00  1.200E+01  2.400E-01 -3.589E-02
   1   14    9     7     1    1.5000E+02  1.3355E+00   1.4866E+02  0.000E+00  0.000E+00  0.000E+00  1.03987E+03  2.288E+00  5.529E+01  5.593E-01  7.960E-01
   1   13    8     7     2    1.4866E+02  1.8262E+00   1.4684E+02  0.000E+00  0.000E+00  0.000E+00  1.03478E+03  2.279E+00  5.526E+01  6.148E-01  9.902E-01
   1   13    7     7     3    1.4684E+02  1.4285E+00   1.4541E+02  0.000E+00  0.000E+00  0.000E+00  1.02969E+03  2.271E+00  5.522E+01  5.585E-01  8.527E-01
   1   13    6     8     1    1.6692E+02  8.4233E-01   1.6607E+02  0.000E+00  0.000E+00  0.000E+00  1.02480E+03  2.929E+00  4.247E+01  4.328E-01  6.487E-01
   1   13    5     8     2    1.6607E+02  9.3450E-02   1.6598E+02  0.000E+00  0.000E+00  0.000E+00  1.01855E+03  2.926E+00  4.243E+01  4.324E-01  7.205E-02
   1   13    4     8     3    1.6598E+02 -2.9962E+00   1.6898E+02  0.000E+00  0.000E+00  0.000E+00  1.01231E+03  2.936E+00  4.257E+01  4.338E+00 -2.302E-01
   1   13    3     8     4    1.6898E+02 -4.0994E+00   1.7308E+02  0.000E+00  0.000E+00  0.000E+00  1.00608E+03  2.959E+00  4.290E+01  4.372E+00 -3.125E-01
   1   13    2     8     5    1.7308E+02 -3.0338E+00   1.7611E+02  0.000E+00  0.000E+00  0.000E+00  9.99857E+02  2.982E+00  4.324E+01  4.406E+00 -2.295E-01
   1   13    1     8     6    1.7611E+02 -2.2541E+00   1.7836E+02  0.000E+00  0.000E+00  0.000E+00  9.94874E+02  2.999E+00  4.348E+01  2.659E+00 -2.826E-01
   1    8    6     9     1    3.7200E+00  0.0000E+00   3.7200E+00  0.000E+00  0.000E+00  0.000E+00  1.08000E+03  1.252E+00  4.000E+00  0.000E+00  1.417E+00
   1    8    5     9     2    3.7200E+00  0.0000E+00   3.7200E+00  0.000E+00  0.000E+00  0.000E+00  1.07950E+03  1.252E+00  4.000E+00  0.000E+00  1.417E+00



 UBDSV3 SAVING "           GW ET" ON UNIT  61 AT TIME STEP 6, STRESS PERIOD 5
 UBDSV3 SAVING "    UZF RECHARGE" ON UNIT  61 AT TIME STEP 6, STRESS PERIOD 5
 UBDSV3 SAVING " SURFACE LEAKAGE" ON UNIT  61 AT TIME STEP 6, STRESS PERIOD 5
 UBDSV3 SAVING "       HORT+DUNN" ON UNIT  61 AT TIME STEP 6, STRESS PERIOD 5
 UBDSV3 SAVING "  STORAGE CHANGE" ON UNIT  61 AT TIME STEP 6, STRESS PERIOD 5


UNSATURATED ZONE PACKAGE VOLUMETRIC BUDGET FOR  TIME STEP     6 STRESS PERIOD    5
  ------------------------------------------------------------------------------



     CUMULATIVE VOLUMES      L**3       RATES FOR THIS TIME STEP      L**3/T
     ------------------                 ------------------------

           IN:                                      IN:
           ---                                      ---
        INFILTRATION =     9165172.3081          INFILTRATION =           4.5676

          OUT:                                     OUT:
          ----                                     ----
              UZF ET =     9008021.5963                UZF ET =           4.5675
        UZF RECHARGE =       73224.0000          UZF RECHARGE =       0.0000E+00

            IN - OUT =       83926.7119              IN - OUT =       7.0870E-05

          STORAGE:                                 STORAGE:
          --------                                 --------
      STORAGE CHANGE =       83926.1691        STORAGE CHANGE =       7.1109E-05

 PERCENT DISCREPANCY IS DIFFERENCE BETWEEN IN-OUT MINUS CHANGE IN STORAGE
 DIVIDED BY THE AVERAGE OF IN AND OUT TIMES 100

 PERCENT DISCREPANCY =           0.00     PERCENT DISCREPANCY =           0.00






 

            AG WELLS      PERIOD    5   STEP   6
 AG WELL      1   LAYER   1   ROW     6   COL     4   RATE     0.00000    
 AG WELL      2   LAYER   1   ROW     6   COL     5   RATE     0.00000    
 AG WELL      3   LAYER   1   ROW     7   COL     4   RATE     0.00000    
 AG WELL      4   LAYER   1   ROW     7   COL     5   RATE     0.00000    
 AG WELL      5   LAYER   1   ROW     8   COL     4   RATE     0.00000    
 AG WELL      6   LAYER   1   ROW     8   COL     5   RATE     0.00000    
 
 

   DIVERSION SEGMENTS     PERIOD    5   STEP   6
 SEGMENT      9   RATE     3.72000    
 
 

        SW IRRIGATION     PERIOD    5   STEP   6
 SEGMENT      9   ROW     6   COL     4   RATE    0.620012    
 SEGMENT      9   ROW     6   COL     5   RATE    0.620012    
 SEGMENT      9   ROW     7   COL     4   RATE    0.620012    
 SEGMENT      9   ROW     7   COL     5   RATE    0.620012    
 SEGMENT      9   ROW     8   COL     4   RATE    0.620012    
 SEGMENT      9   ROW     8   COL     5   RATE    0.620012    
 
 

        GW IRRIGATION     PERIOD    5   STEP   6
 AG WELL      1   ROW     6   COL     4   RATE     0.00000    
 AG WELL      2   ROW     6   COL     5   RATE     0.00000    
 AG WELL      3   ROW     7   COL     4   RATE     0.00000    
 AG WELL      4   ROW     7   COL     5   RATE     0.00000    
 AG WELL      5   ROW     8   COL     4   RATE     0.00000    
 AG WELL      6   ROW     8   COL     5   RATE     0.00000    
 
1
  VOLUMETRIC BUDGET FOR AGRICULTURAL FIELDS AT  END OF TIME STEP    6, STRESS PERIOD   5
  ------------------------------------------------------------------------------

     CUMULATIVE VOLUMES      L**3       RATES FOR THIS TIME STEP      L**3/T
     ------------------                 ------------------------

           IN:                                      IN:
           ---                                      ---
               AG WELLS  =       2.0901E-02                 AG WELLS  =           0.0000
      DIVERSION SEGMENTS =     1959349.6250        DIVERSION SEGMENTS =           3.7200
       IRRIGATION PONDS  =           0.0000         IRRIGATION PONDS  =           0.0000
           GW IRRIGATION =           0.0000             GW IRRIGATION =           0.0000
           SW IRRIGATION =           0.0000             SW IRRIGATION =           0.0000
        SYSTEM LOSSES GW =           0.0000          SYSTEM LOSSES GW =           0.0000
        SYSTEM LOSSES SW =           0.0000          SYSTEM LOSSES SW =           0.0000

                TOTAL IN =     1959349.6250                  TOTAL IN =           3.7200

          OUT:                                     OUT:
          ----                                     ----
               AG WELLS  =           0.0000                 AG WELLS  =           0.0000
      DIVERSION SEGMENTS =           0.0000        DIVERSION SEGMENTS =           0.0000
       IRRIGATION PONDS  =           0.0000         IRRIGATION PONDS  =           0.0000
           GW IRRIGATION =       2.0901E-02             GW IRRIGATION =           0.0000
           SW IRRIGATION =     1959388.6250             SW IRRIGATION =           3.7201
        SYSTEM LOSSES GW =           0.0000          SYSTEM LOSSES GW =           0.0000
        SYSTEM LOSSES SW =           0.0000          SYSTEM LOSSES SW =           0.0000

               TOTAL OUT =     1959388.6250                 TOTAL OUT =           3.7201

                IN - OUT =         -39.0000                  IN - OUT =      -7.4387E-05

     PERCENT DISCREPANCY =          -0.00         PERCENT DISCREPANCY =          -0.00



1
  VOLUMETRIC BUDGET FOR ENTIRE MODEL AT END OF TIME STEP    6, STRESS PERIOD   5
  ------------------------------------------------------------------------------

     CUMULATIVE VOLUMES      L**3       RATES FOR THIS TIME STEP      L**3/T
     ------------------                 ------------------------

           IN:                                      IN:
           ---                                      ---
             STORAGE     =     5771763.0000               STORAGE     =           2.2520
       CONSTANT HEAD     =           0.0000         CONSTANT HEAD     =           0.0000
     HEAD DEP BOUNDS     =     2429027.2500       HEAD DEP BOUNDS     =           0.2857
      STREAM LEAKAGE     =   101847416.0000        STREAM LEAKAGE     =          11.3250
        UZF RECHARGE     =       73223.9531          UZF RECHARGE     =           0.0000
               GW ET     =           0.0000                 GW ET     =           0.0000
     SURFACE LEAKAGE     =           0.0000       SURFACE LEAKAGE     =           0.0000
           AG WELLS      =           0.0000             AG WELLS      =           0.0000

                TOTAL IN =   110121432.0000                  TOTAL IN =          13.8627

          OUT:                                     OUT:
          ----                                     ----
             STORAGE     =    18665710.0000               STORAGE     =           1.1315
       CONSTANT HEAD     =           0.0000         CONSTANT HEAD     =           0.0000
     HEAD DEP BOUNDS     =     2471208.7500       HEAD DEP BOUNDS     =           0.2934
      STREAM LEAKAGE     =    88941760.0000        STREAM LEAKAGE     =          12.4094
        UZF RECHARGE     =           0.0000          UZF RECHARGE     =           0.0000
               GW ET     =       46613.7500                 GW ET     =       2.8451E-02
     SURFACE LEAKAGE     =           0.0000       SURFACE LEAKAGE     =           0.0000
           AG WELLS      =       2.0901E-02             AG WELLS      =           0.0000

               TOTAL OUT =   110125296.0000                 TOTAL OUT =          13.8627

                IN - OUT =       -3864.0000                  IN - OUT =       3.4332E-05

     PERCENT DISCREPANCY =          -0.00         PERCENT DISCREPANCY =           0.00






         TIME SUMMARY AT END OF TIME STEP    6 IN STRESS PERIOD    5
                    SECONDS     MINUTES      HOURS       DAYS        YEARS
                    -----------------------------------------------------------
   TIME STEP LENGTH  87667.      1461.1      24.352      1.0147     2.77799E-03
 STRESS PERIOD TIME 5.26000E+05  8766.7      146.11      6.0880     1.66679E-02
         TOTAL TIME 8.50239E+06 1.41707E+05  2361.8      98.407     0.26942    
1
 
 SOLVING FOR HEAD 
                                                   Max.-Head-Change                         Max.-Flux-Residual
  Residual-Control   Outer-Iter.   Inner-Iter.     Column Row Layer    Maximum-Head-Change  Column Row Layer    Maximum-Flux-Residual          L2-NORM 
          0                 1           2             2   13     1      -0.6953869817E-02       2   13    1        -0.3912206643E+00      0.7245998591E+00
          0                 2           2             2   13     1       0.6513826382E-03       2   13    1         0.3767048604E-01      0.6834322329E-01
          0                 3           2             4    7     1      -0.1154318699E-01       4    8    1        -0.6199751542E+00      0.1525199567E+01
          0                 4           2             4    7     1       0.1201620667E-01       4    8    1         0.6634039674E+00      0.1625087872E+01
          0                 5           2             4    7     1      -0.4782936862E-03       4    6    1        -0.2731198669E-01      0.6657692442E-01
          0                 6           1             4    7     1       0.5905349597E-05       4    6    1         0.3465824766E-03      0.8473258171E-03

    ------------------------------------------------
       NWT REQUIRED            6 OUTER ITERATIONS 
       AND A TOTAL OF         11 INNER ITERATIONS.
    ------------------------------------------------

 OUTPUT CONTROL FOR STRESS PERIOD    5   TIME STEP    7
    PRINT BUDGET
    SAVE BUDGET
 UBDSV1 SAVING "         STORAGE" ON UNIT 102 AT TIME STEP 7, STRESS PERIOD 5
 UBDSV2 SAVING "   CONSTANT HEAD" ON UNIT 102 AT TIME STEP 7, STRESS PERIOD 5
 UBDSV1 SAVING "FLOW RIGHT FACE " ON UNIT 102 AT TIME STEP 7, STRESS PERIOD 5
 UBDSV1 SAVING "FLOW FRONT FACE " ON UNIT 102 AT TIME STEP 7, STRESS PERIOD 5

  HEAD DEP BOUNDS   PERIOD    5   STEP     7
 BOUNDARY      1   LAYER   1   ROW    13   COL     1   RATE   -0.293236    
 BOUNDARY      2   LAYER   1   ROW    14   COL     9   RATE    0.285741    



 STREAM LISTING     PERIOD      5   STEP        7

 LAYER ROW COL. STREAM  RCH.  FLOW INTO     FLOW TO   FLOW OUT OF   OVRLND.     DIRECT     STREAM       STREAM     STREAM     STREAM   STREAMBED  STREAMBED
                SEG.NO.  NO.  STRM. RCH.    AQUIFER    STRM. RCH.    RUNOFF     PRECIP       ET          HEAD       DEPTH      WIDTH   CONDCTNC.   GRADIENT

   1    1    1     1     1    2.1000E+01  2.2592E-01   2.0774E+01  0.000E+00  0.000E+00  0.000E+00  1.09416E+03  1.115E+00  1.220E+01  5.490E-02  1.372E+00
   1    2    2     1     2    2.0774E+01  3.4916E-01   2.0425E+01  0.000E+00  0.000E+00  0.000E+00  1.08917E+03  1.110E+00  1.214E+01  8.495E-02  1.370E+00
   1    3    3     1     3    2.0425E+01  2.9709E-01   2.0128E+01  0.000E+00  0.000E+00  0.000E+00  1.08352E+03  1.105E+00  1.206E+01  7.238E-02  1.368E+00
   1    3    4     1     4    2.0128E+01  2.7299E-01   1.9855E+01  0.000E+00  0.000E+00  0.000E+00  1.07851E+03  1.100E+00  1.200E+01  6.659E-02  1.367E+00
   1    4    5     2     1    1.7855E+01  3.1056E-01   1.7544E+01  0.000E+00  0.000E+00  0.000E+00  1.07292E+03  9.816E-01  1.200E+01  7.800E-02  1.327E+00
   1    5    6     2     2    1.7544E+01  2.3834E-01   1.7306E+01  0.000E+00  0.000E+00  0.000E+00  1.06748E+03  9.724E-01  1.200E+01  6.000E-02  1.324E+00
   1    6    6     2     3    1.7306E+01  2.3787E-01   1.7068E+01  0.000E+00  0.000E+00  0.000E+00  1.06276E+03  9.644E-01  1.200E+01  6.000E-02  1.321E+00
   1    7    6     2     4    1.7068E+01  2.3738E-01   1.6831E+01  0.000E+00  0.000E+00  0.000E+00  1.05803E+03  9.564E-01  1.200E+01  6.000E-02  1.319E+00
   1    8    6     2     5    1.6831E+01  2.3690E-01   1.6594E+01  0.000E+00  0.000E+00  0.000E+00  1.05331E+03  9.483E-01  1.200E+01  6.000E-02  1.316E+00
   1    3    5     3     1    2.0000E+00  2.8252E-01   1.7175E+00  0.000E+00  0.000E+00  0.000E+00  1.07555E+03  1.909E+00  9.636E+00  7.227E-02  1.955E+00
   1    3    6     3     2    1.7175E+00  2.4905E-01   1.4684E+00  0.000E+00  0.000E+00  0.000E+00  1.07264E+03  1.727E+00  8.909E+00  6.682E-02  1.864E+00
   1    3    7     3     3    1.4684E+00  1.9718E-01   1.2712E+00  0.000E+00  0.000E+00  0.000E+00  1.06987E+03  1.555E+00  8.218E+00  5.547E-02  1.777E+00
   1    4    8     3     4    1.2712E+00  2.2567E-01   1.0456E+00  0.000E+00  0.000E+00  0.000E+00  1.06682E+03  1.364E+00  7.455E+00  6.709E-02  1.682E+00
   1    5    8     3     5    1.0456E+00  1.5790E-01   8.8768E-01  0.000E+00  0.000E+00  0.000E+00  1.06362E+03  1.164E+00  6.655E+00  4.991E-02  1.582E+00
   1    6    8     3     6    8.8768E-01  5.5980E-02   8.3170E-01  0.000E+00  0.000E+00  0.000E+00  1.06158E+03  1.036E+00  6.145E+00  1.844E-02  1.518E+00
   1    5   10     4     1    1.0000E+01  9.0919E-02   9.9091E+00  0.000E+00  0.000E+00  0.000E+00  1.07836E+03  6.368E-01  1.000E+01  2.500E-02  1.212E+00
   1    5    9     4     2    9.9091E+00  1.8158E-01   9.7275E+00  0.000E+00  0.000E+00  0.000E+00  1.07154E+03  6.315E-01  1.000E+01  5.000E-02  1.211E+00
   1    6    8     4     3    9.7275E+00  1.2689E-01   9.6006E+00  0.000E+00  0.000E+00  0.000E+00  1.06381E+03  6.256E-01  1.000E+01  3.500E-02  1.209E+00
   1    6    8     5     1    1.0432E+01  2.2686E-01   1.0205E+01  0.000E+00  0.000E+00  0.000E+00  1.05868E+03  6.790E-01  1.542E+01  6.166E-02  1.226E+00
   1    7    7     5     2    1.0205E+01  2.7894E-01   9.9265E+00  0.000E+00  0.000E+00  0.000E+00  1.05417E+03  6.732E-01  1.519E+01  7.594E-02  1.224E+00
   1    8    7     5     3    9.9265E+00  1.9221E-01   9.7343E+00  0.000E+00  0.000E+00  0.000E+00  1.04992E+03  6.676E-01  1.497E+01  5.241E-02  1.223E+00
   1    8    6     5     4    9.7343E+00  1.3577E-01   9.5985E+00  0.000E+00  0.000E+00  0.000E+00  1.04691E+03  6.637E-01  1.482E+01  3.706E-02  1.221E+00
   1    9    6     6     1    2.2472E+01  2.4850E-01   2.2224E+01  0.000E+00  0.000E+00  0.000E+00  1.04387E+03  1.142E+00  1.200E+01  6.000E-02  1.381E+00
   1   10    7     6     2    2.2224E+01  2.4804E-01   2.1976E+01  0.000E+00  0.000E+00  0.000E+00  1.03932E+03  1.134E+00  1.200E+01  6.000E-02  1.378E+00
   1   11    7     6     3    2.1976E+01  2.4758E-01   2.1728E+01  0.000E+00  0.000E+00  0.000E+00  1.03476E+03  1.126E+00  1.200E+01  6.000E-02  1.375E+00
   1   12    7     6     4    2.1728E+01  2.4712E-01   2.1481E+01  0.000E+00  0.000E+00  0.000E+00  1.03021E+03  1.119E+00  1.200E+01  6.000E-02  1.373E+00
   1   13    7     6     5    2.1481E+01 -2.5821E-02   2.1507E+01  0.000E+00  0.000E+00  0.000E+00  1.02702E+03  1.115E+00  1.200E+01  2.400E-01 -3.586E-02
   1   14    9     7     1    1.5000E+02  1.3356E+00   1.4866E+02  0.000E+00  0.000E+00  0.000E+00  1.03987E+03  2.288E+00  5.529E+01  5.593E-01  7.960E-01
   1   13    8     7     2    1.4866E+02  1.8261E+00   1.4684E+02  0.000E+00  0.000E+00  0.000E+00  1.03478E+03  2.279E+00  5.526E+01  6.148E-01  9.901E-01
   1   13    7     7     3    1.4684E+02  1.4286E+00   1.4541E+02  0.000E+00  0.000E+00  0.000E+00  1.02969E+03  2.271E+00  5.522E+01  5.585E-01  8.527E-01
   1   13    6     8     1    1.6692E+02  8.4288E-01   1.6607E+02  0.000E+00  0.000E+00  0.000E+00  1.02480E+03  2.929E+00  4.247E+01  4.328E-01  6.491E-01
   1   13    5     8     2    1.6607E+02  9.3955E-02   1.6598E+02  0.000E+00  0.000E+00  0.000E+00  1.01855E+03  2.926E+00  4.243E+01  4.324E-01  7.243E-02
   1   13    4     8     3    1.6598E+02 -2.9675E+00   1.6895E+02  0.000E+00  0.000E+00  0.000E+00  1.01231E+03  2.936E+00  4.257E+01  4.338E+00 -2.280E-01
   1   13    3     8     4    1.6895E+02 -4.0712E+00   1.7302E+02  0.000E+00  0.000E+00  0.000E+00  1.00608E+03  2.959E+00  4.290E+01  4.372E+00 -3.104E-01
   1   13    2     8     5    1.7302E+02 -3.0021E+00   1.7602E+02  0.000E+00  0.000E+00  0.000E+00  9.99856E+02  2.981E+00  4.323E+01  4.405E+00 -2.272E-01
   1   13    1     8     6    1.7602E+02 -2.2424E+00   1.7826E+02  0.000E+00  0.000E+00  0.000E+00  9.94873E+02  2.998E+00  4.347E+01  2.658E+00 -2.812E-01
   1    8    6     9     1    3.7200E+00  0.0000E+00   3.7200E+00  0.000E+00  0.000E+00  0.000E+00  1.08000E+03  1.252E+00  4.000E+00  0.000E+00  1.417E+00
   1    8    5     9     2    3.7200E+00  0.0000E+00   3.7200E+00  0.000E+00  0.000E+00  0.000E+00  1.07950E+03  1.252E+00  4.000E+00  0.000E+00  1.417E+00



 UBDSV3 SAVING "           GW ET" ON UNIT  61 AT TIME STEP 7, STRESS PERIOD 5
 UBDSV3 SAVING "    UZF RECHARGE" ON UNIT  61 AT TIME STEP 7, STRESS PERIOD 5
 UBDSV3 SAVING " SURFACE LEAKAGE" ON UNIT  61 AT TIME STEP 7, STRESS PERIOD 5
 UBDSV3 SAVING "       HORT+DUNN" ON UNIT  61 AT TIME STEP 7, STRESS PERIOD 5
 UBDSV3 SAVING "  STORAGE CHANGE" ON UNIT  61 AT TIME STEP 7, STRESS PERIOD 5


UNSATURATED ZONE PACKAGE VOLUMETRIC BUDGET FOR  TIME STEP     7 STRESS PERIOD    5
  ------------------------------------------------------------------------------



     CUMULATIVE VOLUMES      L**3       RATES FOR THIS TIME STEP      L**3/T
     ------------------                 ------------------------

           IN:                                      IN:
           ---                                      ---
        INFILTRATION =     9565596.0462          INFILTRATION =           4.5676

          OUT:                                     OUT:
          ----                                     ----
              UZF ET =     9408439.0999                UZF ET =           4.5675
        UZF RECHARGE =       73224.0000          UZF RECHARGE =       0.0000E+00

            IN - OUT =       83932.9462              IN - OUT =       7.0810E-05

          STORAGE:                                 STORAGE:
          --------                                 --------
      STORAGE CHANGE =       83932.4037        STORAGE CHANGE =       7.1117E-05

 PERCENT DISCREPANCY IS DIFFERENCE BETWEEN IN-OUT MINUS CHANGE IN STORAGE
 DIVIDED BY THE AVERAGE OF IN AND OUT TIMES 100

 PERCENT DISCREPANCY =           0.00     PERCENT DISCREPANCY =          -0.00






 

            AG WELLS      PERIOD    5   STEP   7
 AG WELL      1   LAYER   1   ROW     6   COL     4   RATE     0.00000    
 AG WELL      2   LAYER   1   ROW     6   COL     5   RATE     0.00000    
 AG WELL      3   LAYER   1   ROW     7   COL     4   RATE     0.00000    
 AG WELL      4   LAYER   1   ROW     7   COL     5   RATE     0.00000    
 AG WELL      5   LAYER   1   ROW     8   COL     4   RATE     0.00000    
 AG WELL      6   LAYER   1   ROW     8   COL     5   RATE     0.00000    
 
 

   DIVERSION SEGMENTS     PERIOD    5   STEP   7
 SEGMENT      9   RATE     3.72000    
 
 

        SW IRRIGATION     PERIOD    5   STEP   7
 SEGMENT      9   ROW     6   COL     4   RATE    0.620012    
 SEGMENT      9   ROW     6   COL     5   RATE    0.620012    
 SEGMENT      9   ROW     7   COL     4   RATE    0.620012    
 SEGMENT      9   ROW     7   COL     5   RATE    0.620012    
 SEGMENT      9   ROW     8   COL     4   RATE    0.620012    
 SEGMENT      9   ROW     8   COL     5   RATE    0.620012    
 
 

        GW IRRIGATION     PERIOD    5   STEP   7
 AG WELL      1   ROW     6   COL     4   RATE     0.00000    
 AG WELL      2   ROW     6   COL     5   RATE     0.00000    
 AG WELL      3   ROW     7   COL     4   RATE     0.00000    
 AG WELL      4   ROW     7   COL     5   RATE     0.00000    
 AG WELL      5   ROW     8   COL     4   RATE     0.00000    
 AG WELL      6   ROW     8   COL     5   RATE     0.00000    
 
1
  VOLUMETRIC BUDGET FOR AGRICULTURAL FIELDS AT  END OF TIME STEP    7, STRESS PERIOD   5
  ------------------------------------------------------------------------------

     CUMULATIVE VOLUMES      L**3       RATES FOR THIS TIME STEP      L**3/T
     ------------------                 ------------------------

           IN:                                      IN:
           ---                                      ---
               AG WELLS  =       2.0901E-02                 AG WELLS  =           0.0000
      DIVERSION SEGMENTS =     2285469.2500        DIVERSION SEGMENTS =           3.7200
       IRRIGATION PONDS  =           0.0000         IRRIGATION PONDS  =           0.0000
           GW IRRIGATION =           0.0000             GW IRRIGATION =           0.0000
           SW IRRIGATION =           0.0000             SW IRRIGATION =           0.0000
        SYSTEM LOSSES GW =           0.0000          SYSTEM LOSSES GW =           0.0000
        SYSTEM LOSSES SW =           0.0000          SYSTEM LOSSES SW =           0.0000

                TOTAL IN =     2285469.2500                  TOTAL IN =           3.7200

          OUT:                                     OUT:
          ----                                     ----
               AG WELLS  =           0.0000                 AG WELLS  =           0.0000
      DIVERSION SEGMENTS =           0.0000        DIVERSION SEGMENTS =           0.0000
       IRRIGATION PONDS  =           0.0000         IRRIGATION PONDS  =           0.0000
           GW IRRIGATION =       2.0901E-02             GW IRRIGATION =           0.0000
           SW IRRIGATION =     2285515.0000             SW IRRIGATION =           3.7201
        SYSTEM LOSSES GW =           0.0000          SYSTEM LOSSES GW =           0.0000
        SYSTEM LOSSES SW =           0.0000          SYSTEM LOSSES SW =           0.0000

               TOTAL OUT =     2285515.0000                 TOTAL OUT =           3.7201

                IN - OUT =         -45.7500                  IN - OUT =      -7.4387E-05

     PERCENT DISCREPANCY =          -0.00         PERCENT DISCREPANCY =          -0.00



1
  VOLUMETRIC BUDGET FOR ENTIRE MODEL AT END OF TIME STEP    7, STRESS PERIOD   5
  ------------------------------------------------------------------------------

     CUMULATIVE VOLUMES      L**3       RATES FOR THIS TIME STEP      L**3/T
     ------------------                 ------------------------

           IN:                                      IN:
           ---                                      ---
             STORAGE     =     5957172.0000               STORAGE     =           2.1149
       CONSTANT HEAD     =           0.0000         CONSTANT HEAD     =           0.0000
     HEAD DEP BOUNDS     =     2454077.2500       HEAD DEP BOUNDS     =           0.2857
      STREAM LEAKAGE     =   102840328.0000        STREAM LEAKAGE     =          11.3260
        UZF RECHARGE     =       73223.9531          UZF RECHARGE     =           0.0000
               GW ET     =           0.0000                 GW ET     =           0.0000
     SURFACE LEAKAGE     =           0.0000       SURFACE LEAKAGE     =           0.0000
           AG WELLS      =           0.0000             AG WELLS      =           0.0000

                TOTAL IN =   111324800.0000                  TOTAL IN =          13.7266

          OUT:                                     OUT:
          ----                                     ----
             STORAGE     =    18762668.0000               STORAGE     =           1.1060
       CONSTANT HEAD     =           0.0000         CONSTANT HEAD     =           0.0000
     HEAD DEP BOUNDS     =     2496915.7500       HEAD DEP BOUNDS     =           0.2932
      STREAM LEAKAGE     =    90020840.0000        STREAM LEAKAGE     =          12.3089
        UZF RECHARGE     =           0.0000          UZF RECHARGE     =           0.0000
               GW ET     =       48230.3398                 GW ET     =       1.8440E-02
     SURFACE LEAKAGE     =           0.0000       SURFACE LEAKAGE     =           0.0000
           AG WELLS      =       2.0901E-02             AG WELLS      =           0.0000

               TOTAL OUT =   111328656.0000                 TOTAL OUT =          13.7266

                IN - OUT =       -3856.0000                  IN - OUT =       3.4332E-05

     PERCENT DISCREPANCY =          -0.00         PERCENT DISCREPANCY =           0.00






         TIME SUMMARY AT END OF TIME STEP    7 IN STRESS PERIOD    5
                    SECONDS     MINUTES      HOURS       DAYS        YEARS
                    -----------------------------------------------------------
   TIME STEP LENGTH  87667.      1461.1      24.352      1.0147     2.77799E-03
 STRESS PERIOD TIME 6.13667E+05  10228.      170.46      7.1026     1.94459E-02
         TOTAL TIME 8.59006E+06 1.43168E+05  2386.1      99.422     0.27220    
1
 
 SOLVING FOR HEAD 
                                                   Max.-Head-Change                         Max.-Flux-Residual
  Residual-Control   Outer-Iter.   Inner-Iter.     Column Row Layer    Maximum-Head-Change  Column Row Layer    Maximum-Flux-Residual          L2-NORM 
          0                 1           2             2   13     1      -0.6337165052E-02       2   13    1        -0.3565352637E+00      0.6621673224E+00
          0                 2           2             2   13     1       0.5939450991E-03       2   13    1         0.3434955121E-01      0.6477537555E-01
          0                 3           2             4    7     1      -0.1154317206E-01       4    8    1        -0.6199744466E+00      0.1525214041E+01
          0                 4           2             4    7     1       0.1201620690E-01       4    8    1         0.6634038383E+00      0.1625092137E+01
          0                 5           2             4    7     1      -0.4782969998E-03       4    6    1        -0.2732345770E-01      0.6658173197E-01
          0                 6           1             4    7     1       0.5905390371E-05       4    6    1         0.3467279662E-03      0.8473729355E-03

    ------------------------------------------------
       NWT REQUIRED            6 OUTER ITERATIONS 
       AND A TOTAL OF         11 INNER ITERATIONS.
    ------------------------------------------------

 OUTPUT CONTROL FOR STRESS PERIOD    5   TIME STEP    8
    PRINT BUDGET
    SAVE BUDGET
 UBDSV1 SAVING "         STORAGE" ON UNIT 102 AT TIME STEP 8, STRESS PERIOD 5
 UBDSV2 SAVING "   CONSTANT HEAD" ON UNIT 102 AT TIME STEP 8, STRESS PERIOD 5
 UBDSV1 SAVING "FLOW RIGHT FACE " ON UNIT 102 AT TIME STEP 8, STRESS PERIOD 5
 UBDSV1 SAVING "FLOW FRONT FACE " ON UNIT 102 AT TIME STEP 8, STRESS PERIOD 5

  HEAD DEP BOUNDS   PERIOD    5   STEP     8
 BOUNDARY      1   LAYER   1   ROW    13   COL     1   RATE   -0.293059    
 BOUNDARY      2   LAYER   1   ROW    14   COL     9   RATE    0.285742    



 STREAM LISTING     PERIOD      5   STEP        8

 LAYER ROW COL. STREAM  RCH.  FLOW INTO     FLOW TO   FLOW OUT OF   OVRLND.     DIRECT     STREAM       STREAM     STREAM     STREAM   STREAMBED  STREAMBED
                SEG.NO.  NO.  STRM. RCH.    AQUIFER    STRM. RCH.    RUNOFF     PRECIP       ET          HEAD       DEPTH      WIDTH   CONDCTNC.   GRADIENT

   1    1    1     1     1    2.1000E+01  2.2592E-01   2.0774E+01  0.000E+00  0.000E+00  0.000E+00  1.09416E+03  1.115E+00  1.220E+01  5.490E-02  1.372E+00
   1    2    2     1     2    2.0774E+01  3.4916E-01   2.0425E+01  0.000E+00  0.000E+00  0.000E+00  1.08917E+03  1.110E+00  1.214E+01  8.495E-02  1.370E+00
   1    3    3     1     3    2.0425E+01  2.9709E-01   2.0128E+01  0.000E+00  0.000E+00  0.000E+00  1.08352E+03  1.105E+00  1.206E+01  7.238E-02  1.368E+00
   1    3    4     1     4    2.0128E+01  2.7299E-01   1.9855E+01  0.000E+00  0.000E+00  0.000E+00  1.07851E+03  1.100E+00  1.200E+01  6.659E-02  1.367E+00
   1    4    5     2     1    1.7855E+01  3.1056E-01   1.7544E+01  0.000E+00  0.000E+00  0.000E+00  1.07292E+03  9.816E-01  1.200E+01  7.800E-02  1.327E+00
   1    5    6     2     2    1.7544E+01  2.3834E-01   1.7306E+01  0.000E+00  0.000E+00  0.000E+00  1.06748E+03  9.724E-01  1.200E+01  6.000E-02  1.324E+00
   1    6    6     2     3    1.7306E+01  2.3787E-01   1.7068E+01  0.000E+00  0.000E+00  0.000E+00  1.06276E+03  9.644E-01  1.200E+01  6.000E-02  1.321E+00
   1    7    6     2     4    1.7068E+01  2.3738E-01   1.6831E+01  0.000E+00  0.000E+00  0.000E+00  1.05803E+03  9.564E-01  1.200E+01  6.000E-02  1.319E+00
   1    8    6     2     5    1.6831E+01  2.3690E-01   1.6594E+01  0.000E+00  0.000E+00  0.000E+00  1.05331E+03  9.483E-01  1.200E+01  6.000E-02  1.316E+00
   1    3    5     3     1    2.0000E+00  2.8252E-01   1.7175E+00  0.000E+00  0.000E+00  0.000E+00  1.07555E+03  1.909E+00  9.636E+00  7.227E-02  1.955E+00
   1    3    6     3     2    1.7175E+00  2.4905E-01   1.4684E+00  0.000E+00  0.000E+00  0.000E+00  1.07264E+03  1.727E+00  8.909E+00  6.682E-02  1.864E+00
   1    3    7     3     3    1.4684E+00  1.9718E-01   1.2712E+00  0.000E+00  0.000E+00  0.000E+00  1.06987E+03  1.555E+00  8.218E+00  5.547E-02  1.777E+00
   1    4    8     3     4    1.2712E+00  2.2567E-01   1.0456E+00  0.000E+00  0.000E+00  0.000E+00  1.06682E+03  1.364E+00  7.455E+00  6.709E-02  1.682E+00
   1    5    8     3     5    1.0456E+00  1.5790E-01   8.8768E-01  0.000E+00  0.000E+00  0.000E+00  1.06362E+03  1.164E+00  6.655E+00  4.991E-02  1.582E+00
   1    6    8     3     6    8.8768E-01  5.5980E-02   8.3170E-01  0.000E+00  0.000E+00  0.000E+00  1.06158E+03  1.036E+00  6.145E+00  1.844E-02  1.518E+00
   1    5   10     4     1    1.0000E+01  9.0919E-02   9.9091E+00  0.000E+00  0.000E+00  0.000E+00  1.07836E+03  6.368E-01  1.000E+01  2.500E-02  1.212E+00
   1    5    9     4     2    9.9091E+00  1.8158E-01   9.7275E+00  0.000E+00  0.000E+00  0.000E+00  1.07154E+03  6.315E-01  1.000E+01  5.000E-02  1.211E+00
   1    6    8     4     3    9.7275E+00  1.2689E-01   9.6006E+00  0.000E+00  0.000E+00  0.000E+00  1.06381E+03  6.256E-01  1.000E+01  3.500E-02  1.209E+00
   1    6    8     5     1    1.0432E+01  2.2686E-01   1.0205E+01  0.000E+00  0.000E+00  0.000E+00  1.05868E+03  6.790E-01  1.542E+01  6.166E-02  1.226E+00
   1    7    7     5     2    1.0205E+01  2.7894E-01   9.9265E+00  0.000E+00  0.000E+00  0.000E+00  1.05417E+03  6.732E-01  1.519E+01  7.594E-02  1.224E+00
   1    8    7     5     3    9.9265E+00  1.9221E-01   9.7343E+00  0.000E+00  0.000E+00  0.000E+00  1.04992E+03  6.676E-01  1.497E+01  5.241E-02  1.223E+00
   1    8    6     5     4    9.7343E+00  1.3577E-01   9.5985E+00  0.000E+00  0.000E+00  0.000E+00  1.04691E+03  6.637E-01  1.482E+01  3.706E-02  1.221E+00
   1    9    6     6     1    2.2472E+01  2.4850E-01   2.2224E+01  0.000E+00  0.000E+00  0.000E+00  1.04387E+03  1.142E+00  1.200E+01  6.000E-02  1.381E+00
   1   10    7     6     2    2.2224E+01  2.4804E-01   2.1976E+01  0.000E+00  0.000E+00  0.000E+00  1.03932E+03  1.134E+00  1.200E+01  6.000E-02  1.378E+00
   1   11    7     6     3    2.1976E+01  2.4758E-01   2.1728E+01  0.000E+00  0.000E+00  0.000E+00  1.03476E+03  1.126E+00  1.200E+01  6.000E-02  1.375E+00
   1   12    7     6     4    2.1728E+01  2.4712E-01   2.1481E+01  0.000E+00  0.000E+00  0.000E+00  1.03021E+03  1.119E+00  1.200E+01  6.000E-02  1.373E+00
   1   13    7     6     5    2.1481E+01 -2.5802E-02   2.1507E+01  0.000E+00  0.000E+00  0.000E+00  1.02702E+03  1.115E+00  1.200E+01  2.400E-01 -3.584E-02
   1   14    9     7     1    1.5000E+02  1.3356E+00   1.4866E+02  0.000E+00  0.000E+00  0.000E+00  1.03987E+03  2.288E+00  5.529E+01  5.593E-01  7.960E-01
   1   13    8     7     2    1.4866E+02  1.8260E+00   1.4684E+02  0.000E+00  0.000E+00  0.000E+00  1.03478E+03  2.279E+00  5.526E+01  6.148E-01  9.900E-01
   1   13    7     7     3    1.4684E+02  1.4286E+00   1.4541E+02  0.000E+00  0.000E+00  0.000E+00  1.02969E+03  2.271E+00  5.522E+01  5.585E-01  8.527E-01
   1   13    6     8     1    1.6692E+02  8.4341E-01   1.6607E+02  0.000E+00  0.000E+00  0.000E+00  1.02480E+03  2.929E+00  4.247E+01  4.328E-01  6.495E-01
   1   13    5     8     2    1.6607E+02  9.4469E-02   1.6598E+02  0.000E+00  0.000E+00  0.000E+00  1.01855E+03  2.926E+00  4.243E+01  4.324E-01  7.283E-02
   1   13    4     8     3    1.6598E+02 -2.9414E+00   1.6892E+02  0.000E+00  0.000E+00  0.000E+00  1.01231E+03  2.936E+00  4.256E+01  4.338E+00 -2.260E-01
   1   13    3     8     4    1.6892E+02 -4.0457E+00   1.7297E+02  0.000E+00  0.000E+00  0.000E+00  1.00608E+03  2.958E+00  4.290E+01  4.371E+00 -3.085E-01
   1   13    2     8     5    1.7297E+02 -2.9727E+00   1.7594E+02  0.000E+00  0.000E+00  0.000E+00  9.99856E+02  2.981E+00  4.322E+01  4.405E+00 -2.250E-01
   1   13    1     8     6    1.7594E+02 -2.2311E+00   1.7817E+02  0.000E+00  0.000E+00  0.000E+00  9.94873E+02  2.998E+00  4.346E+01  2.658E+00 -2.798E-01
   1    8    6     9     1    3.7200E+00  0.0000E+00   3.7200E+00  0.000E+00  0.000E+00  0.000E+00  1.08000E+03  1.252E+00  4.000E+00  0.000E+00  1.417E+00
   1    8    5     9     2    3.7200E+00  0.0000E+00   3.7200E+00  0.000E+00  0.000E+00  0.000E+00  1.07950E+03  1.252E+00  4.000E+00  0.000E+00  1.417E+00



 UBDSV3 SAVING "           GW ET" ON UNIT  61 AT TIME STEP 8, STRESS PERIOD 5
 UBDSV3 SAVING "    UZF RECHARGE" ON UNIT  61 AT TIME STEP 8, STRESS PERIOD 5
 UBDSV3 SAVING " SURFACE LEAKAGE" ON UNIT  61 AT TIME STEP 8, STRESS PERIOD 5
 UBDSV3 SAVING "       HORT+DUNN" ON UNIT  61 AT TIME STEP 8, STRESS PERIOD 5
 UBDSV3 SAVING "  STORAGE CHANGE" ON UNIT  61 AT TIME STEP 8, STRESS PERIOD 5


UNSATURATED ZONE PACKAGE VOLUMETRIC BUDGET FOR  TIME STEP     8 STRESS PERIOD    5
  ------------------------------------------------------------------------------



     CUMULATIVE VOLUMES      L**3       RATES FOR THIS TIME STEP      L**3/T
     ------------------                 ------------------------

           IN:                                      IN:
           ---                                      ---
        INFILTRATION =     9966019.6905          INFILTRATION =           4.5676

          OUT:                                     OUT:
          ----                                     ----
              UZF ET =     9808856.5997                UZF ET =           4.5675
        UZF RECHARGE =       73224.0000          UZF RECHARGE =       0.0000E+00

            IN - OUT =       83939.0908              IN - OUT =       6.9797E-05

          STORAGE:                                 STORAGE:
          --------                                 --------
      STORAGE CHANGE =       83938.5411        STORAGE CHANGE =       7.0008E-05

 PERCENT DISCREPANCY IS DIFFERENCE BETWEEN IN-OUT MINUS CHANGE IN STORAGE
 DIVIDED BY THE AVERAGE OF IN AND OUT TIMES 100

 PERCENT DISCREPANCY =           0.00     PERCENT DISCREPANCY =           0.00






 

            AG WELLS      PERIOD    5   STEP   8
 AG WELL      1   LAYER   1   ROW     6   COL     4   RATE     0.00000    
 AG WELL      2   LAYER   1   ROW     6   COL     5   RATE     0.00000    
 AG WELL      3   LAYER   1   ROW     7   COL     4   RATE     0.00000    
 AG WELL      4   LAYER   1   ROW     7   COL     5   RATE     0.00000    
 AG WELL      5   LAYER   1   ROW     8   COL     4   RATE     0.00000    
 AG WELL      6   LAYER   1   ROW     8   COL     5   RATE     0.00000    
 
 

   DIVERSION SEGMENTS     PERIOD    5   STEP   8
 SEGMENT      9   RATE     3.72000    
 
 

        SW IRRIGATION     PERIOD    5   STEP   8
 SEGMENT      9   ROW     6   COL     4   RATE    0.620012    
 SEGMENT      9   ROW     6   COL     5   RATE    0.620012    
 SEGMENT      9   ROW     7   COL     4   RATE    0.620012    
 SEGMENT      9   ROW     7   COL     5   RATE    0.620012    
 SEGMENT      9   ROW     8   COL     4   RATE    0.620012    
 SEGMENT      9   ROW     8   COL     5   RATE    0.620012    
 
 

        GW IRRIGATION     PERIOD    5   STEP   8
 AG WELL      1   ROW     6   COL     4   RATE     0.00000    
 AG WELL      2   ROW     6   COL     5   RATE     0.00000    
 AG WELL      3   ROW     7   COL     4   RATE     0.00000    
 AG WELL      4   ROW     7   COL     5   RATE     0.00000    
 AG WELL      5   ROW     8   COL     4   RATE     0.00000    
 AG WELL      6   ROW     8   COL     5   RATE     0.00000    
 
1
  VOLUMETRIC BUDGET FOR AGRICULTURAL FIELDS AT  END OF TIME STEP    8, STRESS PERIOD   5
  ------------------------------------------------------------------------------

     CUMULATIVE VOLUMES      L**3       RATES FOR THIS TIME STEP      L**3/T
     ------------------                 ------------------------

           IN:                                      IN:
           ---                                      ---
               AG WELLS  =       2.0901E-02                 AG WELLS  =           0.0000
      DIVERSION SEGMENTS =     2611589.0000        DIVERSION SEGMENTS =           3.7200
       IRRIGATION PONDS  =           0.0000         IRRIGATION PONDS  =           0.0000
           GW IRRIGATION =           0.0000             GW IRRIGATION =           0.0000
           SW IRRIGATION =           0.0000             SW IRRIGATION =           0.0000
        SYSTEM LOSSES GW =           0.0000          SYSTEM LOSSES GW =           0.0000
        SYSTEM LOSSES SW =           0.0000          SYSTEM LOSSES SW =           0.0000

                TOTAL IN =     2611589.0000                  TOTAL IN =           3.7200

          OUT:                                     OUT:
          ----                                     ----
               AG WELLS  =           0.0000                 AG WELLS  =           0.0000
      DIVERSION SEGMENTS =           0.0000        DIVERSION SEGMENTS =           0.0000
       IRRIGATION PONDS  =           0.0000         IRRIGATION PONDS  =           0.0000
           GW IRRIGATION =       2.0901E-02             GW IRRIGATION =           0.0000
           SW IRRIGATION =     2611641.0000             SW IRRIGATION =           3.7201
        SYSTEM LOSSES GW =           0.0000          SYSTEM LOSSES GW =           0.0000
        SYSTEM LOSSES SW =           0.0000          SYSTEM LOSSES SW =           0.0000

               TOTAL OUT =     2611641.0000                 TOTAL OUT =           3.7201

                IN - OUT =         -52.0000                  IN - OUT =      -7.4387E-05

     PERCENT DISCREPANCY =          -0.00         PERCENT DISCREPANCY =          -0.00



1
  VOLUMETRIC BUDGET FOR ENTIRE MODEL AT END OF TIME STEP    8, STRESS PERIOD   5
  ------------------------------------------------------------------------------

     CUMULATIVE VOLUMES      L**3       RATES FOR THIS TIME STEP      L**3/T
     ------------------                 ------------------------

           IN:                                      IN:
           ---                                      ---
             STORAGE     =     6131775.0000               STORAGE     =           1.9917
       CONSTANT HEAD     =           0.0000         CONSTANT HEAD     =           0.0000
     HEAD DEP BOUNDS     =     2479127.2500       HEAD DEP BOUNDS     =           0.2857
      STREAM LEAKAGE     =   103833328.0000        STREAM LEAKAGE     =          11.3270
        UZF RECHARGE     =       73223.9531          UZF RECHARGE     =           0.0000
               GW ET     =           0.0000                 GW ET     =           0.0000
     SURFACE LEAKAGE     =           0.0000       SURFACE LEAKAGE     =           0.0000
           AG WELLS      =           0.0000             AG WELLS      =           0.0000

                TOTAL IN =   112517456.0000                  TOTAL IN =          13.6044

          OUT:                                     OUT:
          ----                                     ----
             STORAGE     =    18857668.0000               STORAGE     =           1.0836
       CONSTANT HEAD     =           0.0000         CONSTANT HEAD     =           0.0000
     HEAD DEP BOUNDS     =     2522607.2500       HEAD DEP BOUNDS     =           0.2931
      STREAM LEAKAGE     =    91091832.0000        STREAM LEAKAGE     =          12.2166
        UZF RECHARGE     =           0.0000          UZF RECHARGE     =           0.0000
               GW ET     =       49194.2500                 GW ET     =       1.0995E-02
     SURFACE LEAKAGE     =           0.0000       SURFACE LEAKAGE     =           0.0000
           AG WELLS      =       2.0901E-02             AG WELLS      =           0.0000

               TOTAL OUT =   112521304.0000                 TOTAL OUT =          13.6043

                IN - OUT =       -3848.0000                  IN - OUT =       3.5286E-05

     PERCENT DISCREPANCY =          -0.00         PERCENT DISCREPANCY =           0.00






         TIME SUMMARY AT END OF TIME STEP    8 IN STRESS PERIOD    5
                    SECONDS     MINUTES      HOURS       DAYS        YEARS
                    -----------------------------------------------------------
   TIME STEP LENGTH  87667.      1461.1      24.352      1.0147     2.77799E-03
 STRESS PERIOD TIME 7.01333E+05  11689.      194.81      8.1173     2.22239E-02
         TOTAL TIME 8.67773E+06 1.44629E+05  2410.5      100.44     0.27498    
1
 
 SOLVING FOR HEAD 
                                                   Max.-Head-Change                         Max.-Flux-Residual
  Residual-Control   Outer-Iter.   Inner-Iter.     Column Row Layer    Maximum-Head-Change  Column Row Layer    Maximum-Flux-Residual          L2-NORM 
          0                 1           2             2   13     1      -0.5765560029E-02       2   13    1        -0.3243816631E+00      0.6069068715E+00
          0                 2           2             2   13     1       0.5407733554E-03       2   13    1         0.3127511534E-01      0.5941923395E-01
          0                 3           2             4    7     1      -0.1154315793E-01       4    8    1        -0.6199737717E+00      0.1525210119E+01
          0                 4           2             4    7     1       0.1201620357E-01       4    8    1         0.6634035128E+00      0.1625095832E+01
          0                 5           2             4    7     1      -0.4782952595E-03       4    6    1        -0.2733459461E-01      0.6658581694E-01
          0                 6           1             4    7     1       0.5901962461E-05       4    6    1         0.3466705361E-03      0.8469335700E-03

    ------------------------------------------------
       NWT REQUIRED            6 OUTER ITERATIONS 
       AND A TOTAL OF         11 INNER ITERATIONS.
    ------------------------------------------------

 OUTPUT CONTROL FOR STRESS PERIOD    5   TIME STEP    9
    PRINT BUDGET
    SAVE BUDGET
 UBDSV1 SAVING "         STORAGE" ON UNIT 102 AT TIME STEP 9, STRESS PERIOD 5
 UBDSV2 SAVING "   CONSTANT HEAD" ON UNIT 102 AT TIME STEP 9, STRESS PERIOD 5
 UBDSV1 SAVING "FLOW RIGHT FACE " ON UNIT 102 AT TIME STEP 9, STRESS PERIOD 5
 UBDSV1 SAVING "FLOW FRONT FACE " ON UNIT 102 AT TIME STEP 9, STRESS PERIOD 5

  HEAD DEP BOUNDS   PERIOD    5   STEP     9
 BOUNDARY      1   LAYER   1   ROW    13   COL     1   RATE   -0.292889    
 BOUNDARY      2   LAYER   1   ROW    14   COL     9   RATE    0.285742    



 STREAM LISTING     PERIOD      5   STEP        9

 LAYER ROW COL. STREAM  RCH.  FLOW INTO     FLOW TO   FLOW OUT OF   OVRLND.     DIRECT     STREAM       STREAM     STREAM     STREAM   STREAMBED  STREAMBED
                SEG.NO.  NO.  STRM. RCH.    AQUIFER    STRM. RCH.    RUNOFF     PRECIP       ET          HEAD       DEPTH      WIDTH   CONDCTNC.   GRADIENT

   1    1    1     1     1    2.1000E+01  2.2592E-01   2.0774E+01  0.000E+00  0.000E+00  0.000E+00  1.09416E+03  1.115E+00  1.220E+01  5.490E-02  1.372E+00
   1    2    2     1     2    2.0774E+01  3.4916E-01   2.0425E+01  0.000E+00  0.000E+00  0.000E+00  1.08917E+03  1.110E+00  1.214E+01  8.495E-02  1.370E+00
   1    3    3     1     3    2.0425E+01  2.9709E-01   2.0128E+01  0.000E+00  0.000E+00  0.000E+00  1.08352E+03  1.105E+00  1.206E+01  7.238E-02  1.368E+00
   1    3    4     1     4    2.0128E+01  2.7299E-01   1.9855E+01  0.000E+00  0.000E+00  0.000E+00  1.07851E+03  1.100E+00  1.200E+01  6.659E-02  1.367E+00
   1    4    5     2     1    1.7855E+01  3.1056E-01   1.7544E+01  0.000E+00  0.000E+00  0.000E+00  1.07292E+03  9.816E-01  1.200E+01  7.800E-02  1.327E+00
   1    5    6     2     2    1.7544E+01  2.3834E-01   1.7306E+01  0.000E+00  0.000E+00  0.000E+00  1.06748E+03  9.724E-01  1.200E+01  6.000E-02  1.324E+00
   1    6    6     2     3    1.7306E+01  2.3787E-01   1.7068E+01  0.000E+00  0.000E+00  0.000E+00  1.06276E+03  9.644E-01  1.200E+01  6.000E-02  1.321E+00
   1    7    6     2     4    1.7068E+01  2.3738E-01   1.6831E+01  0.000E+00  0.000E+00  0.000E+00  1.05803E+03  9.564E-01  1.200E+01  6.000E-02  1.319E+00
   1    8    6     2     5    1.6831E+01  2.3690E-01   1.6594E+01  0.000E+00  0.000E+00  0.000E+00  1.05331E+03  9.483E-01  1.200E+01  6.000E-02  1.316E+00
   1    3    5     3     1    2.0000E+00  2.8252E-01   1.7175E+00  0.000E+00  0.000E+00  0.000E+00  1.07555E+03  1.909E+00  9.636E+00  7.227E-02  1.955E+00
   1    3    6     3     2    1.7175E+00  2.4905E-01   1.4684E+00  0.000E+00  0.000E+00  0.000E+00  1.07264E+03  1.727E+00  8.909E+00  6.682E-02  1.864E+00
   1    3    7     3     3    1.4684E+00  1.9718E-01   1.2712E+00  0.000E+00  0.000E+00  0.000E+00  1.06987E+03  1.555E+00  8.218E+00  5.547E-02  1.777E+00
   1    4    8     3     4    1.2712E+00  2.2567E-01   1.0456E+00  0.000E+00  0.000E+00  0.000E+00  1.06682E+03  1.364E+00  7.455E+00  6.709E-02  1.682E+00
   1    5    8     3     5    1.0456E+00  1.5790E-01   8.8768E-01  0.000E+00  0.000E+00  0.000E+00  1.06362E+03  1.164E+00  6.655E+00  4.991E-02  1.582E+00
   1    6    8     3     6    8.8768E-01  5.5980E-02   8.3170E-01  0.000E+00  0.000E+00  0.000E+00  1.06158E+03  1.036E+00  6.145E+00  1.844E-02  1.518E+00
   1    5   10     4     1    1.0000E+01  9.0919E-02   9.9091E+00  0.000E+00  0.000E+00  0.000E+00  1.07836E+03  6.368E-01  1.000E+01  2.500E-02  1.212E+00
   1    5    9     4     2    9.9091E+00  1.8158E-01   9.7275E+00  0.000E+00  0.000E+00  0.000E+00  1.07154E+03  6.315E-01  1.000E+01  5.000E-02  1.211E+00
   1    6    8     4     3    9.7275E+00  1.2689E-01   9.6006E+00  0.000E+00  0.000E+00  0.000E+00  1.06381E+03  6.256E-01  1.000E+01  3.500E-02  1.209E+00
   1    6    8     5     1    1.0432E+01  2.2686E-01   1.0205E+01  0.000E+00  0.000E+00  0.000E+00  1.05868E+03  6.790E-01  1.542E+01  6.166E-02  1.226E+00
   1    7    7     5     2    1.0205E+01  2.7894E-01   9.9265E+00  0.000E+00  0.000E+00  0.000E+00  1.05417E+03  6.732E-01  1.519E+01  7.594E-02  1.224E+00
   1    8    7     5     3    9.9265E+00  1.9221E-01   9.7343E+00  0.000E+00  0.000E+00  0.000E+00  1.04992E+03  6.676E-01  1.497E+01  5.241E-02  1.223E+00
   1    8    6     5     4    9.7343E+00  1.3577E-01   9.5985E+00  0.000E+00  0.000E+00  0.000E+00  1.04691E+03  6.637E-01  1.482E+01  3.706E-02  1.221E+00
   1    9    6     6     1    2.2472E+01  2.4850E-01   2.2224E+01  0.000E+00  0.000E+00  0.000E+00  1.04387E+03  1.142E+00  1.200E+01  6.000E-02  1.381E+00
   1   10    7     6     2    2.2224E+01  2.4804E-01   2.1976E+01  0.000E+00  0.000E+00  0.000E+00  1.03932E+03  1.134E+00  1.200E+01  6.000E-02  1.378E+00
   1   11    7     6     3    2.1976E+01  2.4758E-01   2.1728E+01  0.000E+00  0.000E+00  0.000E+00  1.03476E+03  1.126E+00  1.200E+01  6.000E-02  1.375E+00
   1   12    7     6     4    2.1728E+01  2.4712E-01   2.1481E+01  0.000E+00  0.000E+00  0.000E+00  1.03021E+03  1.119E+00  1.200E+01  6.000E-02  1.373E+00
   1   13    7     6     5    2.1481E+01 -2.5781E-02   2.1507E+01  0.000E+00  0.000E+00  0.000E+00  1.02702E+03  1.115E+00  1.200E+01  2.400E-01 -3.581E-02
   1   14    9     7     1    1.5000E+02  1.3356E+00   1.4866E+02  0.000E+00  0.000E+00  0.000E+00  1.03987E+03  2.288E+00  5.529E+01  5.593E-01  7.960E-01
   1   13    8     7     2    1.4866E+02  1.8259E+00   1.4684E+02  0.000E+00  0.000E+00  0.000E+00  1.03478E+03  2.279E+00  5.526E+01  6.148E-01  9.900E-01
   1   13    7     7     3    1.4684E+02  1.4287E+00   1.4541E+02  0.000E+00  0.000E+00  0.000E+00  1.02969E+03  2.271E+00  5.522E+01  5.585E-01  8.527E-01
   1   13    6     8     1    1.6692E+02  8.4392E-01   1.6607E+02  0.000E+00  0.000E+00  0.000E+00  1.02480E+03  2.929E+00  4.247E+01  4.328E-01  6.499E-01
   1   13    5     8     2    1.6607E+02  9.4989E-02   1.6598E+02  0.000E+00  0.000E+00  0.000E+00  1.01855E+03  2.926E+00  4.243E+01  4.324E-01  7.323E-02
   1   13    4     8     3    1.6598E+02 -2.9177E+00   1.6890E+02  0.000E+00  0.000E+00  0.000E+00  1.01231E+03  2.935E+00  4.256E+01  4.337E+00 -2.242E-01
   1   13    3     8     4    1.6890E+02 -4.0227E+00   1.7292E+02  0.000E+00  0.000E+00  0.000E+00  1.00608E+03  2.958E+00  4.289E+01  4.371E+00 -3.068E-01
   1   13    2     8     5    1.7292E+02 -2.9455E+00   1.7586E+02  0.000E+00  0.000E+00  0.000E+00  9.99856E+02  2.981E+00  4.322E+01  4.404E+00 -2.229E-01
   1   13    1     8     6    1.7586E+02 -2.2202E+00   1.7808E+02  0.000E+00  0.000E+00  0.000E+00  9.94872E+02  2.997E+00  4.346E+01  2.657E+00 -2.785E-01
   1    8    6     9     1    3.7200E+00  0.0000E+00   3.7200E+00  0.000E+00  0.000E+00  0.000E+00  1.08000E+03  1.252E+00  4.000E+00  0.000E+00  1.417E+00
   1    8    5     9     2    3.7200E+00  0.0000E+00   3.7200E+00  0.000E+00  0.000E+00  0.000E+00  1.07950E+03  1.252E+00  4.000E+00  0.000E+00  1.417E+00



 UBDSV3 SAVING "           GW ET" ON UNIT  61 AT TIME STEP 9, STRESS PERIOD 5
 UBDSV3 SAVING "    UZF RECHARGE" ON UNIT  61 AT TIME STEP 9, STRESS PERIOD 5
 UBDSV3 SAVING " SURFACE LEAKAGE" ON UNIT  61 AT TIME STEP 9, STRESS PERIOD 5
 UBDSV3 SAVING "       HORT+DUNN" ON UNIT  61 AT TIME STEP 9, STRESS PERIOD 5
 UBDSV3 SAVING "  STORAGE CHANGE" ON UNIT  61 AT TIME STEP 9, STRESS PERIOD 5


UNSATURATED ZONE PACKAGE VOLUMETRIC BUDGET FOR  TIME STEP     9 STRESS PERIOD    5
  ------------------------------------------------------------------------------



     CUMULATIVE VOLUMES      L**3       RATES FOR THIS TIME STEP      L**3/T
     ------------------                 ------------------------

           IN:                                      IN:
           ---                                      ---
        INFILTRATION =    10366443.1473          INFILTRATION =           4.5676

          OUT:                                     OUT:
          ----                                     ----
              UZF ET =    10209274.0995                UZF ET =           4.5675
        UZF RECHARGE =       73224.0000          UZF RECHARGE =       0.0000E+00

            IN - OUT =       83945.0478              IN - OUT =       6.7651E-05

          STORAGE:                                 STORAGE:
          --------                                 --------
      STORAGE CHANGE =       83944.4939        STORAGE CHANGE =       6.7902E-05

 PERCENT DISCREPANCY IS DIFFERENCE BETWEEN IN-OUT MINUS CHANGE IN STORAGE
 DIVIDED BY THE AVERAGE OF IN AND OUT TIMES 100

 PERCENT DISCREPANCY =           0.00     PERCENT DISCREPANCY =          -0.00






 

            AG WELLS      PERIOD    5   STEP   9
 AG WELL      1   LAYER   1   ROW     6   COL     4   RATE     0.00000    
 AG WELL      2   LAYER   1   ROW     6   COL     5   RATE     0.00000    
 AG WELL      3   LAYER   1   ROW     7   COL     4   RATE     0.00000    
 AG WELL      4   LAYER   1   ROW     7   COL     5   RATE     0.00000    
 AG WELL      5   LAYER   1   ROW     8   COL     4   RATE     0.00000    
 AG WELL      6   LAYER   1   ROW     8   COL     5   RATE     0.00000    
 
 

   DIVERSION SEGMENTS     PERIOD    5   STEP   9
 SEGMENT      9   RATE     3.71999    
 
 

        SW IRRIGATION     PERIOD    5   STEP   9
 SEGMENT      9   ROW     6   COL     4   RATE    0.620011    
 SEGMENT      9   ROW     6   COL     5   RATE    0.620011    
 SEGMENT      9   ROW     7   COL     4   RATE    0.620011    
 SEGMENT      9   ROW     7   COL     5   RATE    0.620011    
 SEGMENT      9   ROW     8   COL     4   RATE    0.620011    
 SEGMENT      9   ROW     8   COL     5   RATE    0.620011    
 
 

        GW IRRIGATION     PERIOD    5   STEP   9
 AG WELL      1   ROW     6   COL     4   RATE     0.00000    
 AG WELL      2   ROW     6   COL     5   RATE     0.00000    
 AG WELL      3   ROW     7   COL     4   RATE     0.00000    
 AG WELL      4   ROW     7   COL     5   RATE     0.00000    
 AG WELL      5   ROW     8   COL     4   RATE     0.00000    
 AG WELL      6   ROW     8   COL     5   RATE     0.00000    
 
1
  VOLUMETRIC BUDGET FOR AGRICULTURAL FIELDS AT  END OF TIME STEP    9, STRESS PERIOD   5
  ------------------------------------------------------------------------------

     CUMULATIVE VOLUMES      L**3       RATES FOR THIS TIME STEP      L**3/T
     ------------------                 ------------------------

           IN:                                      IN:
           ---                                      ---
               AG WELLS  =       2.0901E-02                 AG WELLS  =           0.0000
      DIVERSION SEGMENTS =     2937708.5000        DIVERSION SEGMENTS =           3.7200
       IRRIGATION PONDS  =           0.0000         IRRIGATION PONDS  =           0.0000
           GW IRRIGATION =           0.0000             GW IRRIGATION =           0.0000
           SW IRRIGATION =           0.0000             SW IRRIGATION =           0.0000
        SYSTEM LOSSES GW =           0.0000          SYSTEM LOSSES GW =           0.0000
        SYSTEM LOSSES SW =           0.0000          SYSTEM LOSSES SW =           0.0000

                TOTAL IN =     2937708.5000                  TOTAL IN =           3.7200

          OUT:                                     OUT:
          ----                                     ----
               AG WELLS  =           0.0000                 AG WELLS  =           0.0000
      DIVERSION SEGMENTS =           0.0000        DIVERSION SEGMENTS =           0.0000
       IRRIGATION PONDS  =           0.0000         IRRIGATION PONDS  =           0.0000
           GW IRRIGATION =       2.0901E-02             GW IRRIGATION =           0.0000
           SW IRRIGATION =     2937767.0000             SW IRRIGATION =           3.7201
        SYSTEM LOSSES GW =           0.0000          SYSTEM LOSSES GW =           0.0000
        SYSTEM LOSSES SW =           0.0000          SYSTEM LOSSES SW =           0.0000

               TOTAL OUT =     2937767.0000                 TOTAL OUT =           3.7201

                IN - OUT =         -58.5000                  IN - OUT =      -7.4387E-05

     PERCENT DISCREPANCY =          -0.00         PERCENT DISCREPANCY =          -0.00



1
  VOLUMETRIC BUDGET FOR ENTIRE MODEL AT END OF TIME STEP    9, STRESS PERIOD   5
  ------------------------------------------------------------------------------

     CUMULATIVE VOLUMES      L**3       RATES FOR THIS TIME STEP      L**3/T
     ------------------                 ------------------------

           IN:                                      IN:
           ---                                      ---
             STORAGE     =     6296621.0000               STORAGE     =           1.8804
       CONSTANT HEAD     =           0.0000         CONSTANT HEAD     =           0.0000
     HEAD DEP BOUNDS     =     2504177.2500       HEAD DEP BOUNDS     =           0.2857
      STREAM LEAKAGE     =   104826408.0000        STREAM LEAKAGE     =          11.3279
        UZF RECHARGE     =       73223.9531          UZF RECHARGE     =           0.0000
               GW ET     =           0.0000                 GW ET     =           0.0000
     SURFACE LEAKAGE     =           0.0000       SURFACE LEAKAGE     =           0.0000
           AG WELLS      =           0.0000             AG WELLS      =           0.0000

                TOTAL IN =   113700432.0000                  TOTAL IN =          13.4941

          OUT:                                     OUT:
          ----                                     ----
             STORAGE     =    18951042.0000               STORAGE     =           1.0651
       CONSTANT HEAD     =           0.0000         CONSTANT HEAD     =           0.0000
     HEAD DEP BOUNDS     =     2548284.0000       HEAD DEP BOUNDS     =           0.2929
      STREAM LEAKAGE     =    92155384.0000        STREAM LEAKAGE     =          12.1318
        UZF RECHARGE     =           0.0000          UZF RECHARGE     =           0.0000
               GW ET     =       49568.4805                 GW ET     =       4.2688E-03
     SURFACE LEAKAGE     =           0.0000       SURFACE LEAKAGE     =           0.0000
           AG WELLS      =       2.0901E-02             AG WELLS      =           0.0000

               TOTAL OUT =   113704280.0000                 TOTAL OUT =          13.4940

                IN - OUT =       -3848.0000                  IN - OUT =       3.5286E-05

     PERCENT DISCREPANCY =          -0.00         PERCENT DISCREPANCY =           0.00






         TIME SUMMARY AT END OF TIME STEP    9 IN STRESS PERIOD    5
                    SECONDS     MINUTES      HOURS       DAYS        YEARS
                    -----------------------------------------------------------
   TIME STEP LENGTH  87667.      1461.1      24.352      1.0147     2.77799E-03
 STRESS PERIOD TIME 7.89000E+05  13150.      219.17      9.1319     2.50019E-02
         TOTAL TIME 8.76540E+06 1.46090E+05  2434.8      101.45     0.27776    
1
 
 SOLVING FOR HEAD 
                                                   Max.-Head-Change                         Max.-Flux-Residual
  Residual-Control   Outer-Iter.   Inner-Iter.     Column Row Layer    Maximum-Head-Change  Column Row Layer    Maximum-Flux-Residual          L2-NORM 
          0                 1           2             2   13     1      -0.5236053592E-02       2   13    1        -0.2945919741E+00      0.5574257821E+00
          0                 2           2             2   13     1       0.4915439625E-03       2   13    1         0.2843198556E-01      0.5424626147E-01
          0                 3           2             4    7     1      -0.1154314513E-01       4    8    1        -0.6199731753E+00      0.1525204123E+01
          0                 4           2             4    7     1       0.1201620392E-01       5    8    1         0.6634034062E+00      0.1625099962E+01
          0                 5           2             4    7     1      -0.4783020586E-03       4    6    1        -0.2734617155E-01      0.6659106983E-01
          0                 6           1             4    7     1       0.5905452876E-05       4    6    1         0.3470160241E-03      0.8474960352E-03

    ------------------------------------------------
       NWT REQUIRED            6 OUTER ITERATIONS 
       AND A TOTAL OF         11 INNER ITERATIONS.
    ------------------------------------------------

 OUTPUT CONTROL FOR STRESS PERIOD    5   TIME STEP   10
    PRINT BUDGET
    SAVE BUDGET
 UBDSV1 SAVING "         STORAGE" ON UNIT 102 AT TIME STEP 10, STRESS PERIOD 5
 UBDSV2 SAVING "   CONSTANT HEAD" ON UNIT 102 AT TIME STEP 10, STRESS PERIOD 5
 UBDSV1 SAVING "FLOW RIGHT FACE " ON UNIT 102 AT TIME STEP 10, STRESS PERIOD 5
 UBDSV1 SAVING "FLOW FRONT FACE " ON UNIT 102 AT TIME STEP 10, STRESS PERIOD 5

  HEAD DEP BOUNDS   PERIOD    5   STEP    10
 BOUNDARY      1   LAYER   1   ROW    13   COL     1   RATE   -0.292726    
 BOUNDARY      2   LAYER   1   ROW    14   COL     9   RATE    0.285743    



 STREAM LISTING     PERIOD      5   STEP       10

 LAYER ROW COL. STREAM  RCH.  FLOW INTO     FLOW TO   FLOW OUT OF   OVRLND.     DIRECT     STREAM       STREAM     STREAM     STREAM   STREAMBED  STREAMBED
                SEG.NO.  NO.  STRM. RCH.    AQUIFER    STRM. RCH.    RUNOFF     PRECIP       ET          HEAD       DEPTH      WIDTH   CONDCTNC.   GRADIENT

   1    1    1     1     1    2.1000E+01  2.2592E-01   2.0774E+01  0.000E+00  0.000E+00  0.000E+00  1.09416E+03  1.115E+00  1.220E+01  5.490E-02  1.372E+00
   1    2    2     1     2    2.0774E+01  3.4916E-01   2.0425E+01  0.000E+00  0.000E+00  0.000E+00  1.08917E+03  1.110E+00  1.214E+01  8.495E-02  1.370E+00
   1    3    3     1     3    2.0425E+01  2.9709E-01   2.0128E+01  0.000E+00  0.000E+00  0.000E+00  1.08352E+03  1.105E+00  1.206E+01  7.238E-02  1.368E+00
   1    3    4     1     4    2.0128E+01  2.7299E-01   1.9855E+01  0.000E+00  0.000E+00  0.000E+00  1.07851E+03  1.100E+00  1.200E+01  6.659E-02  1.367E+00
   1    4    5     2     1    1.7855E+01  3.1056E-01   1.7544E+01  0.000E+00  0.000E+00  0.000E+00  1.07292E+03  9.816E-01  1.200E+01  7.800E-02  1.327E+00
   1    5    6     2     2    1.7544E+01  2.3834E-01   1.7306E+01  0.000E+00  0.000E+00  0.000E+00  1.06748E+03  9.724E-01  1.200E+01  6.000E-02  1.324E+00
   1    6    6     2     3    1.7306E+01  2.3787E-01   1.7068E+01  0.000E+00  0.000E+00  0.000E+00  1.06276E+03  9.644E-01  1.200E+01  6.000E-02  1.321E+00
   1    7    6     2     4    1.7068E+01  2.3738E-01   1.6831E+01  0.000E+00  0.000E+00  0.000E+00  1.05803E+03  9.564E-01  1.200E+01  6.000E-02  1.319E+00
   1    8    6     2     5    1.6831E+01  2.3690E-01   1.6594E+01  0.000E+00  0.000E+00  0.000E+00  1.05331E+03  9.483E-01  1.200E+01  6.000E-02  1.316E+00
   1    3    5     3     1    2.0000E+00  2.8252E-01   1.7175E+00  0.000E+00  0.000E+00  0.000E+00  1.07555E+03  1.909E+00  9.636E+00  7.227E-02  1.955E+00
   1    3    6     3     2    1.7175E+00  2.4905E-01   1.4684E+00  0.000E+00  0.000E+00  0.000E+00  1.07264E+03  1.727E+00  8.909E+00  6.682E-02  1.864E+00
   1    3    7     3     3    1.4684E+00  1.9718E-01   1.2712E+00  0.000E+00  0.000E+00  0.000E+00  1.06987E+03  1.555E+00  8.218E+00  5.547E-02  1.777E+00
   1    4    8     3     4    1.2712E+00  2.2567E-01   1.0456E+00  0.000E+00  0.000E+00  0.000E+00  1.06682E+03  1.364E+00  7.455E+00  6.709E-02  1.682E+00
   1    5    8     3     5    1.0456E+00  1.5790E-01   8.8768E-01  0.000E+00  0.000E+00  0.000E+00  1.06362E+03  1.164E+00  6.655E+00  4.991E-02  1.582E+00
   1    6    8     3     6    8.8768E-01  5.5980E-02   8.3170E-01  0.000E+00  0.000E+00  0.000E+00  1.06158E+03  1.036E+00  6.145E+00  1.844E-02  1.518E+00
   1    5   10     4     1    1.0000E+01  9.0919E-02   9.9091E+00  0.000E+00  0.000E+00  0.000E+00  1.07836E+03  6.368E-01  1.000E+01  2.500E-02  1.212E+00
   1    5    9     4     2    9.9091E+00  1.8158E-01   9.7275E+00  0.000E+00  0.000E+00  0.000E+00  1.07154E+03  6.315E-01  1.000E+01  5.000E-02  1.211E+00
   1    6    8     4     3    9.7275E+00  1.2689E-01   9.6006E+00  0.000E+00  0.000E+00  0.000E+00  1.06381E+03  6.256E-01  1.000E+01  3.500E-02  1.209E+00
   1    6    8     5     1    1.0432E+01  2.2686E-01   1.0205E+01  0.000E+00  0.000E+00  0.000E+00  1.05868E+03  6.790E-01  1.542E+01  6.166E-02  1.226E+00
   1    7    7     5     2    1.0205E+01  2.7894E-01   9.9265E+00  0.000E+00  0.000E+00  0.000E+00  1.05417E+03  6.732E-01  1.519E+01  7.594E-02  1.224E+00
   1    8    7     5     3    9.9265E+00  1.9221E-01   9.7343E+00  0.000E+00  0.000E+00  0.000E+00  1.04992E+03  6.676E-01  1.497E+01  5.241E-02  1.223E+00
   1    8    6     5     4    9.7343E+00  1.3577E-01   9.5985E+00  0.000E+00  0.000E+00  0.000E+00  1.04691E+03  6.637E-01  1.482E+01  3.706E-02  1.221E+00
   1    9    6     6     1    2.2472E+01  2.4850E-01   2.2224E+01  0.000E+00  0.000E+00  0.000E+00  1.04387E+03  1.142E+00  1.200E+01  6.000E-02  1.381E+00
   1   10    7     6     2    2.2224E+01  2.4804E-01   2.1976E+01  0.000E+00  0.000E+00  0.000E+00  1.03932E+03  1.134E+00  1.200E+01  6.000E-02  1.378E+00
   1   11    7     6     3    2.1976E+01  2.4758E-01   2.1728E+01  0.000E+00  0.000E+00  0.000E+00  1.03476E+03  1.126E+00  1.200E+01  6.000E-02  1.375E+00
   1   12    7     6     4    2.1728E+01  2.4712E-01   2.1481E+01  0.000E+00  0.000E+00  0.000E+00  1.03021E+03  1.119E+00  1.200E+01  6.000E-02  1.373E+00
   1   13    7     6     5    2.1481E+01 -2.5759E-02   2.1507E+01  0.000E+00  0.000E+00  0.000E+00  1.02702E+03  1.115E+00  1.200E+01  2.400E-01 -3.578E-02
   1   14    9     7     1    1.5000E+02  1.3356E+00   1.4866E+02  0.000E+00  0.000E+00  0.000E+00  1.03987E+03  2.288E+00  5.529E+01  5.593E-01  7.960E-01
   1   13    8     7     2    1.4866E+02  1.8258E+00   1.4684E+02  0.000E+00  0.000E+00  0.000E+00  1.03478E+03  2.279E+00  5.526E+01  6.148E-01  9.899E-01
   1   13    7     7     3    1.4684E+02  1.4287E+00   1.4541E+02  0.000E+00  0.000E+00  0.000E+00  1.02969E+03  2.271E+00  5.522E+01  5.585E-01  8.528E-01
   1   13    6     8     1    1.6692E+02  8.4441E-01   1.6607E+02  0.000E+00  0.000E+00  0.000E+00  1.02480E+03  2.929E+00  4.247E+01  4.328E-01  6.503E-01
   1   13    5     8     2    1.6607E+02  9.5513E-02   1.6598E+02  0.000E+00  0.000E+00  0.000E+00  1.01855E+03  2.926E+00  4.243E+01  4.324E-01  7.364E-02
   1   13    4     8     3    1.6598E+02 -2.8961E+00   1.6887E+02  0.000E+00  0.000E+00  0.000E+00  1.01231E+03  2.935E+00  4.256E+01  4.337E+00 -2.226E-01
   1   13    3     8     4    1.6887E+02 -4.0018E+00   1.7287E+02  0.000E+00  0.000E+00  0.000E+00  1.00608E+03  2.958E+00  4.289E+01  4.371E+00 -3.052E-01
   1   13    2     8     5    1.7287E+02 -2.9202E+00   1.7580E+02  0.000E+00  0.000E+00  0.000E+00  9.99855E+02  2.980E+00  4.321E+01  4.404E+00 -2.211E-01
   1   13    1     8     6    1.7580E+02 -2.2097E+00   1.7800E+02  0.000E+00  0.000E+00  0.000E+00  9.94872E+02  2.997E+00  4.345E+01  2.657E+00 -2.772E-01
   1    8    6     9     1    3.7200E+00  0.0000E+00   3.7200E+00  0.000E+00  0.000E+00  0.000E+00  1.08000E+03  1.252E+00  4.000E+00  0.000E+00  1.417E+00
   1    8    5     9     2    3.7200E+00  0.0000E+00   3.7200E+00  0.000E+00  0.000E+00  0.000E+00  1.07950E+03  1.252E+00  4.000E+00  0.000E+00  1.417E+00



 UBDSV3 SAVING "           GW ET" ON UNIT  61 AT TIME STEP 10, STRESS PERIOD 5
 UBDSV3 SAVING "    UZF RECHARGE" ON UNIT  61 AT TIME STEP 10, STRESS PERIOD 5
 UBDSV3 SAVING " SURFACE LEAKAGE" ON UNIT  61 AT TIME STEP 10, STRESS PERIOD 5
 UBDSV3 SAVING "       HORT+DUNN" ON UNIT  61 AT TIME STEP 10, STRESS PERIOD 5
 UBDSV3 SAVING "  STORAGE CHANGE" ON UNIT  61 AT TIME STEP 10, STRESS PERIOD 5


UNSATURATED ZONE PACKAGE VOLUMETRIC BUDGET FOR  TIME STEP    10 STRESS PERIOD    5
  ------------------------------------------------------------------------------



     CUMULATIVE VOLUMES      L**3       RATES FOR THIS TIME STEP      L**3/T
     ------------------                 ------------------------

           IN:                                      IN:
           ---                                      ---
        INFILTRATION =    10766866.6041          INFILTRATION =           4.5676

          OUT:                                     OUT:
          ----                                     ----
              UZF ET =    10609691.5993                UZF ET =           4.5675
        UZF RECHARGE =       73224.0000          UZF RECHARGE =       0.0000E+00

            IN - OUT =       83951.0048              IN - OUT =       6.7651E-05

          STORAGE:                                 STORAGE:
          --------                                 --------
      STORAGE CHANGE =       83950.4485        STORAGE CHANGE =       6.7923E-05

 PERCENT DISCREPANCY IS DIFFERENCE BETWEEN IN-OUT MINUS CHANGE IN STORAGE
 DIVIDED BY THE AVERAGE OF IN AND OUT TIMES 100

 PERCENT DISCREPANCY =           0.00     PERCENT DISCREPANCY =          -0.00






 

            AG WELLS      PERIOD    5   STEP  10
 AG WELL      1   LAYER   1   ROW     6   COL     4   RATE     0.00000    
 AG WELL      2   LAYER   1   ROW     6   COL     5   RATE     0.00000    
 AG WELL      3   LAYER   1   ROW     7   COL     4   RATE     0.00000    
 AG WELL      4   LAYER   1   ROW     7   COL     5   RATE     0.00000    
 AG WELL      5   LAYER   1   ROW     8   COL     4   RATE     0.00000    
 AG WELL      6   LAYER   1   ROW     8   COL     5   RATE     0.00000    
 
 

   DIVERSION SEGMENTS     PERIOD    5   STEP  10
 SEGMENT      9   RATE     3.71999    
 
 

        SW IRRIGATION     PERIOD    5   STEP  10
 SEGMENT      9   ROW     6   COL     4   RATE    0.620011    
 SEGMENT      9   ROW     6   COL     5   RATE    0.620011    
 SEGMENT      9   ROW     7   COL     4   RATE    0.620011    
 SEGMENT      9   ROW     7   COL     5   RATE    0.620011    
 SEGMENT      9   ROW     8   COL     4   RATE    0.620011    
 SEGMENT      9   ROW     8   COL     5   RATE    0.620011    
 
 

        GW IRRIGATION     PERIOD    5   STEP  10
 AG WELL      1   ROW     6   COL     4   RATE     0.00000    
 AG WELL      2   ROW     6   COL     5   RATE     0.00000    
 AG WELL      3   ROW     7   COL     4   RATE     0.00000    
 AG WELL      4   ROW     7   COL     5   RATE     0.00000    
 AG WELL      5   ROW     8   COL     4   RATE     0.00000    
 AG WELL      6   ROW     8   COL     5   RATE     0.00000    
 
1
  VOLUMETRIC BUDGET FOR AGRICULTURAL FIELDS AT  END OF TIME STEP   10, STRESS PERIOD   5
  ------------------------------------------------------------------------------

     CUMULATIVE VOLUMES      L**3       RATES FOR THIS TIME STEP      L**3/T
     ------------------                 ------------------------

           IN:                                      IN:
           ---                                      ---
               AG WELLS  =       2.0901E-02                 AG WELLS  =           0.0000
      DIVERSION SEGMENTS =     3263828.0000        DIVERSION SEGMENTS =           3.7200
       IRRIGATION PONDS  =           0.0000         IRRIGATION PONDS  =           0.0000
           GW IRRIGATION =           0.0000             GW IRRIGATION =           0.0000
           SW IRRIGATION =           0.0000             SW IRRIGATION =           0.0000
        SYSTEM LOSSES GW =           0.0000          SYSTEM LOSSES GW =           0.0000
        SYSTEM LOSSES SW =           0.0000          SYSTEM LOSSES SW =           0.0000

                TOTAL IN =     3263828.0000                  TOTAL IN =           3.7200

          OUT:                                     OUT:
          ----                                     ----
               AG WELLS  =           0.0000                 AG WELLS  =           0.0000
      DIVERSION SEGMENTS =           0.0000        DIVERSION SEGMENTS =           0.0000
       IRRIGATION PONDS  =           0.0000         IRRIGATION PONDS  =           0.0000
           GW IRRIGATION =       2.0901E-02             GW IRRIGATION =           0.0000
           SW IRRIGATION =     3263893.0000             SW IRRIGATION =           3.7201
        SYSTEM LOSSES GW =           0.0000          SYSTEM LOSSES GW =           0.0000
        SYSTEM LOSSES SW =           0.0000          SYSTEM LOSSES SW =           0.0000

               TOTAL OUT =     3263893.0000                 TOTAL OUT =           3.7201

                IN - OUT =         -65.0000                  IN - OUT =      -7.4387E-05

     PERCENT DISCREPANCY =          -0.00         PERCENT DISCREPANCY =          -0.00



1
  VOLUMETRIC BUDGET FOR ENTIRE MODEL AT END OF TIME STEP   10, STRESS PERIOD   5
  ------------------------------------------------------------------------------

     CUMULATIVE VOLUMES      L**3       RATES FOR THIS TIME STEP      L**3/T
     ------------------                 ------------------------

           IN:                                      IN:
           ---                                      ---
             STORAGE     =     6452771.0000               STORAGE     =           1.7812
       CONSTANT HEAD     =           0.0000         CONSTANT HEAD     =           0.0000
     HEAD DEP BOUNDS     =     2529227.5000       HEAD DEP BOUNDS     =           0.2857
      STREAM LEAKAGE     =   105819576.0000        STREAM LEAKAGE     =          11.3289
        UZF RECHARGE     =       73223.9531          UZF RECHARGE     =           0.0000
               GW ET     =           0.0000                 GW ET     =           0.0000
     SURFACE LEAKAGE     =           0.0000       SURFACE LEAKAGE     =           0.0000
           AG WELLS      =           0.0000             AG WELLS      =           0.0000

                TOTAL IN =   114874800.0000                  TOTAL IN =          13.3958

          OUT:                                     OUT:
          ----                                     ----
             STORAGE     =    19043050.0000               STORAGE     =           1.0495
       CONSTANT HEAD     =           0.0000         CONSTANT HEAD     =           0.0000
     HEAD DEP BOUNDS     =     2573946.2500       HEAD DEP BOUNDS     =           0.2927
      STREAM LEAKAGE     =    93212080.0000        STREAM LEAKAGE     =          12.0536
        UZF RECHARGE     =           0.0000          UZF RECHARGE     =           0.0000
               GW ET     =       49568.4805                 GW ET     =           0.0000
     SURFACE LEAKAGE     =           0.0000       SURFACE LEAKAGE     =           0.0000
           AG WELLS      =       2.0901E-02             AG WELLS      =           0.0000

               TOTAL OUT =   114878640.0000                 TOTAL OUT =          13.3958

                IN - OUT =       -3840.0000                  IN - OUT =       3.4332E-05

     PERCENT DISCREPANCY =          -0.00         PERCENT DISCREPANCY =           0.00






         TIME SUMMARY AT END OF TIME STEP   10 IN STRESS PERIOD    5
                    SECONDS     MINUTES      HOURS       DAYS        YEARS
                    -----------------------------------------------------------
   TIME STEP LENGTH  87667.      1461.1      24.352      1.0147     2.77799E-03
 STRESS PERIOD TIME 8.76667E+05  14611.      243.52      10.147     2.77799E-02
         TOTAL TIME 8.85306E+06 1.47551E+05  2459.2      102.47     0.28054    
1
 
 SOLVING FOR HEAD 
                                                   Max.-Head-Change                         Max.-Flux-Residual
  Residual-Control   Outer-Iter.   Inner-Iter.     Column Row Layer    Maximum-Head-Change  Column Row Layer    Maximum-Flux-Residual          L2-NORM 
          0                 1           2             2   13     1      -0.4746456377E-02       2   13    1        -0.2669966497E+00      0.5139056442E+00
          0                 2           2             2   13     1       0.4457833660E-03       2   13    1         0.2577687808E-01      0.5041482482E-01
          0                 3           2             4    7     1      -0.1154313220E-01       4    8    1        -0.6199726624E+00      0.1525204577E+01
          0                 4           2             4    7     1       0.1201620172E-01       5    8    1         0.6634033796E+00      0.1625103718E+01
          0                 5           2             4    7     1      -0.4783003378E-03       4    6    1        -0.2735719925E-01      0.6659511555E-01
          0                 6           1             4    7     1       0.5902025190E-05       4    6    1         0.3469572066E-03      0.8471035560E-03

    ------------------------------------------------
       NWT REQUIRED            6 OUTER ITERATIONS 
       AND A TOTAL OF         11 INNER ITERATIONS.
    ------------------------------------------------

 NO OUTPUT CONTROL FOR STRESS PERIOD    5   TIME STEP   11
 
 SOLVING FOR HEAD 
                                                   Max.-Head-Change                         Max.-Flux-Residual
  Residual-Control   Outer-Iter.   Inner-Iter.     Column Row Layer    Maximum-Head-Change  Column Row Layer    Maximum-Flux-Residual          L2-NORM 
          0                 1           2             2   13     1      -0.4293728577E-02       2   13    1        -0.2414854702E+00      0.4764483442E+00
          0                 2           2             2   13     1       0.4035040123E-03       2   13    1         0.2332773488E-01      0.4679911101E-01
          0                 3           2             4    7     1      -0.1154311981E-01       4    8    1        -0.6199720802E+00      0.1525203907E+01
          0                 4           2             4    7     1       0.1201620026E-01       5    8    1         0.6634033864E+00      0.1625107516E+01
          0                 5           2             4    7     1      -0.4783028352E-03       4    6    1        -0.2736841080E-01      0.6659973316E-01
          0                 6           1             4    7     1       0.5902056107E-05       4    6    1         0.3470994029E-03      0.8470974140E-03

    ------------------------------------------------
       NWT REQUIRED            6 OUTER ITERATIONS 
       AND A TOTAL OF         11 INNER ITERATIONS.
    ------------------------------------------------

 NO OUTPUT CONTROL FOR STRESS PERIOD    5   TIME STEP   12
 
 SOLVING FOR HEAD 
                                                   Max.-Head-Change                         Max.-Flux-Residual
  Residual-Control   Outer-Iter.   Inner-Iter.     Column Row Layer    Maximum-Head-Change  Column Row Layer    Maximum-Flux-Residual          L2-NORM 
          0                 1           2             2   13     1      -0.3875073850E-02       2   13    1        -0.2178968450E+00      0.4428936507E+00
          0                 2           2             2   13     1       0.3643635433E-03       2   13    1         0.2106066234E-01      0.4356257555E-01
          0                 3           2             4    7     1      -0.1154310869E-01       4    8    1        -0.6199716536E+00      0.1525203473E+01
          0                 4           2             4    7     1       0.1201613626E-01       5    8    1         0.6633999249E+00      0.1625102816E+01
          0                 5           2             4    7     1      -0.4782419089E-03       4    6    1        -0.2737596057E-01      0.6659551052E-01
          0                 6           1             4    7     1       0.5897897853E-05       4    6    1         0.3469964781E-03      0.8465287760E-03

    ------------------------------------------------
       NWT REQUIRED            6 OUTER ITERATIONS 
       AND A TOTAL OF         11 INNER ITERATIONS.
    ------------------------------------------------

 NO OUTPUT CONTROL FOR STRESS PERIOD    5   TIME STEP   13
 
 SOLVING FOR HEAD 
                                                   Max.-Head-Change                         Max.-Flux-Residual
  Residual-Control   Outer-Iter.   Inner-Iter.     Column Row Layer    Maximum-Head-Change  Column Row Layer    Maximum-Flux-Residual          L2-NORM 
          0                 1           2             2   13     1      -0.3487827383E-02       2   13    1        -0.1960802141E+00      0.4129293769E+00
          0                 2           2             2   13     1       0.3281676915E-03       2   13    1         0.1896439518E-01      0.4067301667E-01
          0                 3           2             4    7     1      -0.1154309724E-01       4    8    1        -0.6199711121E+00      0.1525202700E+01
          0                 4           2             4    7     1       0.1201619709E-01       5    8    1         0.6634033339E+00      0.1625114949E+01
          0                 5           2             4    7     1      -0.4783119780E-03       4    6    1        -0.2739088296E-01      0.6660947328E-01
          0                 6           1             4    7     1       0.5905575645E-05       4    6    1         0.3475830840E-03      0.8476960733E-03

    ------------------------------------------------
       NWT REQUIRED            6 OUTER ITERATIONS 
       AND A TOTAL OF         11 INNER ITERATIONS.
    ------------------------------------------------

 NO OUTPUT CONTROL FOR STRESS PERIOD    5   TIME STEP   14
 
 SOLVING FOR HEAD 
                                                   Max.-Head-Change                         Max.-Flux-Residual
  Residual-Control   Outer-Iter.   Inner-Iter.     Column Row Layer    Maximum-Head-Change  Column Row Layer    Maximum-Flux-Residual          L2-NORM 
          0                 1           2             2   13     1      -0.3129595123E-02       2   13    1        -0.1759002914E+00      0.3862972318E+00
          0                 2           2             2   13     1       0.2946590065E-03       2   13    1         0.1702394257E-01      0.3811535099E-01
          0                 3           2             4    7     1      -0.1154308915E-01       4    8    1        -0.6199708358E+00      0.1525202754E+01
          0                 4           2             4    7     1       0.1201612065E-01       5    8    1         0.6633991598E+00      0.1625108495E+01
          0                 5           2             4    7     1      -0.4782337170E-03       4    6    1        -0.2739729879E-01      0.6660278372E-01
          0                 6           1             4    7     1       0.5897796815E-05       4    6    1         0.3472670987E-03      0.8466463802E-03

    ------------------------------------------------
       NWT REQUIRED            6 OUTER ITERATIONS 
       AND A TOTAL OF         11 INNER ITERATIONS.
    ------------------------------------------------

 NO OUTPUT CONTROL FOR STRESS PERIOD    5   TIME STEP   15
 
 SOLVING FOR HEAD 
                                                   Max.-Head-Change                         Max.-Flux-Residual
  Residual-Control   Outer-Iter.   Inner-Iter.     Column Row Layer    Maximum-Head-Change  Column Row Layer    Maximum-Flux-Residual          L2-NORM 
          0                 1           2             1   13     1      -0.2873943925E-02       2   13    1        -0.1572775292E+00      0.3627425495E+00
          0                 2           2             1   13     1       0.2725297153E-03       2   13    1         0.1527107890E-01      0.3587082272E-01
          0                 3           2             4    7     1      -0.1154307882E-01       4    8    1        -0.6199703393E+00      0.1525202647E+01
          0                 4           2             4    7     1       0.1201610810E-01       5    8    1         0.6633985005E+00      0.1625110594E+01
          0                 5           2             4    7     1      -0.4782259019E-03       4    6    1        -0.2740763330E-01      0.6660585772E-01
          0                 6           1             4    7     1       0.5897700257E-05       4    6    1         0.3473981551E-03      0.8466755457E-03

    ------------------------------------------------
       NWT REQUIRED            6 OUTER ITERATIONS 
       AND A TOTAL OF         11 INNER ITERATIONS.
    ------------------------------------------------

 NO OUTPUT CONTROL FOR STRESS PERIOD    5   TIME STEP   16
 
 SOLVING FOR HEAD 
                                                   Max.-Head-Change                         Max.-Flux-Residual
  Residual-Control   Outer-Iter.   Inner-Iter.     Column Row Layer    Maximum-Head-Change  Column Row Layer    Maximum-Flux-Residual          L2-NORM 
          0                 1           2             1   13     1      -0.2717292000E-02       1   13    1        -0.1478958743E+00      0.3419782307E+00
          0                 2           2             1   13     1       0.2581238206E-03       1   13    1         0.1444359452E-01      0.3386478097E-01
          0                 3           2             4    7     1      -0.1154306952E-01       4    8    1        -0.6199699853E+00      0.1525202301E+01
          0                 4           2             4    7     1       0.1201609919E-01       5    8    1         0.6633980310E+00      0.1625113140E+01
          0                 5           2             4    7     1      -0.4782217156E-03       4    6    1        -0.2741809748E-01      0.6660940375E-01
          0                 6           1             4    7     1       0.5901054909E-05       4    6    1         0.3477295627E-03      0.8472014632E-03

    ------------------------------------------------
       NWT REQUIRED            6 OUTER ITERATIONS 
       AND A TOTAL OF         11 INNER ITERATIONS.
    ------------------------------------------------

 NO OUTPUT CONTROL FOR STRESS PERIOD    5   TIME STEP   17
 
 SOLVING FOR HEAD 
                                                   Max.-Head-Change                         Max.-Flux-Residual
  Residual-Control   Outer-Iter.   Inner-Iter.     Column Row Layer    Maximum-Head-Change  Column Row Layer    Maximum-Flux-Residual          L2-NORM 
          0                 1           2             1   13     1      -0.2566260994E-02       1   13    1        -0.1397269022E+00      0.3238132849E+00
          0                 2           2             1   13     1       0.2442045624E-03       1   13    1         0.1366976243E-01      0.3212310482E-01
          0                 3           2             4    7     1      -0.1154306412E-01       4    8    1        -0.6199696435E+00      0.1525202346E+01
          0                 4           2             4    7     1       0.1201609017E-01       5    8    1         0.6633975377E+00      0.1625115649E+01
          0                 5           2             4    7     1      -0.4782161023E-03       4    6    1        -0.2742838576E-01      0.6661272782E-01
          0                 6           1             4    7     1       0.5897579280E-05       4    6    1         0.3476613406E-03      0.8467733022E-03

    ------------------------------------------------
       NWT REQUIRED            6 OUTER ITERATIONS 
       AND A TOTAL OF         11 INNER ITERATIONS.
    ------------------------------------------------

 NO OUTPUT CONTROL FOR STRESS PERIOD    5   TIME STEP   18
 
 SOLVING FOR HEAD 
                                                   Max.-Head-Change                         Max.-Flux-Residual
  Residual-Control   Outer-Iter.   Inner-Iter.     Column Row Layer    Maximum-Head-Change  Column Row Layer    Maximum-Flux-Residual          L2-NORM 
          0                 1           2             1   13     1      -0.2420762995E-02       1   13    1        -0.1318534235E+00      0.3080193408E+00
          0                 2           2             1   13     1       0.2307877245E-03       1   13    1         0.1292349482E-01      0.3061381105E-01
          0                 3           2             4    7     1      -0.1154305454E-01       4    8    1        -0.6199691779E+00      0.1525202144E+01
          0                 4           2             4    7     1       0.1201607724E-01       5    8    1         0.6633968259E+00      0.1625117553E+01
          0                 5           2             4    7     1      -0.4782089142E-03       4    6    1        -0.2743850301E-01      0.6661579534E-01
          0                 6           1             4    7     1       0.5897490564E-05       4    6    1         0.3477896666E-03      0.8467852822E-03

    ------------------------------------------------
       NWT REQUIRED            6 OUTER ITERATIONS 
       AND A TOTAL OF         11 INNER ITERATIONS.
    ------------------------------------------------

 NO OUTPUT CONTROL FOR STRESS PERIOD    5   TIME STEP   19
 
 SOLVING FOR HEAD 
                                                   Max.-Head-Change                         Max.-Flux-Residual
  Residual-Control   Outer-Iter.   Inner-Iter.     Column Row Layer    Maximum-Head-Change  Column Row Layer    Maximum-Flux-Residual          L2-NORM 
          0                 1           2             1   13     1      -0.2280639852E-02       1   13    1        -0.1242673847E+00      0.2943820530E+00
          0                 2           2             1   13     1       0.2178018435E-03       1   13    1         0.1220083742E-01      0.2931007944E-01
          0                 3           2             4    7     1      -0.1154304669E-01       4    8    1        -0.6199688907E+00      0.1525202100E+01
          0                 4           2             4    7     1       0.1201606477E-01       5    8    1         0.6633961298E+00      0.1625119479E+01
          0                 5           2             4    7     1      -0.4782010251E-03       4    6    1        -0.2744849581E-01      0.6661873598E-01
          0                 6           1             4    7     1       0.5897393558E-05       4    6    1         0.3479163993E-03      0.8468145575E-03

    ------------------------------------------------
       NWT REQUIRED            6 OUTER ITERATIONS 
       AND A TOTAL OF         11 INNER ITERATIONS.
    ------------------------------------------------

 NO OUTPUT CONTROL FOR STRESS PERIOD    5   TIME STEP   20
 
 SOLVING FOR HEAD 
                                                   Max.-Head-Change                         Max.-Flux-Residual
  Residual-Control   Outer-Iter.   Inner-Iter.     Column Row Layer    Maximum-Head-Change  Column Row Layer    Maximum-Flux-Residual          L2-NORM 
          0                 1           2             1   13     1      -0.2145879763E-02       1   13    1        -0.1169686179E+00      0.2826960596E+00
          0                 2           2             1    1     1      -0.2081116413E-03       1   13    1         0.1150620311E-01      0.2819504438E-01
          0                 3           2             4    7     1      -0.1154303948E-01       4    8    1        -0.6199685366E+00      0.1525202208E+01
          0                 4           2             4    7     1       0.1201605303E-01       5    8    1         0.6633954660E+00      0.1625121453E+01
          0                 5           2             4    7     1      -0.4781938415E-03       4    6    1        -0.2745842639E-01      0.6662173657E-01
          0                 6           1             4    7     1       0.5900711244E-05       4    6    1         0.3482410193E-03      0.8473376122E-03

    ------------------------------------------------
       NWT REQUIRED            6 OUTER ITERATIONS 
       AND A TOTAL OF         11 INNER ITERATIONS.
    ------------------------------------------------

 NO OUTPUT CONTROL FOR STRESS PERIOD    5   TIME STEP   21
 
 SOLVING FOR HEAD 
                                                   Max.-Head-Change                         Max.-Flux-Residual
  Residual-Control   Outer-Iter.   Inner-Iter.     Column Row Layer    Maximum-Head-Change  Column Row Layer    Maximum-Flux-Residual          L2-NORM 
          0                 1           2             1    1     1       0.2137058625E-02       1    1    1         0.1109478965E+00      0.2727683702E+00
          0                 2           2             1    1     1      -0.2078776792E-03       1    1    1        -0.1109479961E-01      0.2724806553E-01
          0                 3           2             4    7     1      -0.1154303286E-01       4    8    1        -0.6199683008E+00      0.1525202234E+01
          0                 4           2             4    7     1       0.1201604204E-01       5    8    1         0.6633948349E+00      0.1625123477E+01
          0                 5           2             4    7     1      -0.4781873669E-03       4    6    1        -0.2746830880E-01      0.6662480355E-01
          0                 6           1             4    7     1       0.5897224862E-05       4    6    1         0.3481676818E-03      0.8468840722E-03

    ------------------------------------------------
       NWT REQUIRED            6 OUTER ITERATIONS 
       AND A TOTAL OF         11 INNER ITERATIONS.
    ------------------------------------------------

 NO OUTPUT CONTROL FOR STRESS PERIOD    5   TIME STEP   22
 
 SOLVING FOR HEAD 
                                                   Max.-Head-Change                         Max.-Flux-Residual
  Residual-Control   Outer-Iter.   Inner-Iter.     Column Row Layer    Maximum-Head-Change  Column Row Layer    Maximum-Flux-Residual          L2-NORM 
          0                 1           2             1    1     1       0.2134661227E-02       1    1    1         0.1108231891E+00      0.2644100390E+00
          0                 2           2             1    1     1      -0.2076444771E-03       1    1    1        -0.1108232883E-01      0.2645050665E-01
          0                 3           2             4    7     1      -0.1154302636E-01       4    8    1        -0.6199679709E+00      0.1525202260E+01
          0                 4           2             4    7     1       0.1201603318E-01       5    8    1         0.6633943146E+00      0.1625125744E+01
          0                 5           2             4    7     1      -0.4781830540E-03       4    6    1        -0.2747820802E-01      0.6662812772E-01
          0                 6           1             4    7     1       0.5900577945E-05       4    6    1         0.3484918939E-03      0.8474075145E-03

    ------------------------------------------------
       NWT REQUIRED            6 OUTER ITERATIONS 
       AND A TOTAL OF         11 INNER ITERATIONS.
    ------------------------------------------------

 NO OUTPUT CONTROL FOR STRESS PERIOD    5   TIME STEP   23
 
 SOLVING FOR HEAD 
                                                   Max.-Head-Change                         Max.-Flux-Residual
  Residual-Control   Outer-Iter.   Inner-Iter.     Column Row Layer    Maximum-Head-Change  Column Row Layer    Maximum-Flux-Residual          L2-NORM 
          0                 1           2             1    1     1       0.2132271643E-02       1    1    1         0.1106988869E+00      0.2574274806E+00
          0                 2           2             1    1     1      -0.2074120353E-03       1    1    1        -0.1106989857E-01      0.2578341325E-01
          0                 3           2             4    7     1      -0.1154302077E-01       4    8    1        -0.6199677762E+00      0.1525202361E+01
          0                 4           2             4    7     1       0.1201602005E-01       5    8    1         0.6633935511E+00      0.1625127387E+01
          0                 5           2             4    7     1      -0.4781743482E-03       4    6    1        -0.2748776641E-01      0.6663080998E-01
          0                 6           1             4    7     1       0.5898427016E-05       4    6    1         0.3484939248E-03      0.8471440927E-03

    ------------------------------------------------
       NWT REQUIRED            6 OUTER ITERATIONS 
       AND A TOTAL OF         11 INNER ITERATIONS.
    ------------------------------------------------

 NO OUTPUT CONTROL FOR STRESS PERIOD    5   TIME STEP   24
 
 SOLVING FOR HEAD 
                                                   Max.-Head-Change                         Max.-Flux-Residual
  Residual-Control   Outer-Iter.   Inner-Iter.     Column Row Layer    Maximum-Head-Change  Column Row Layer    Maximum-Flux-Residual          L2-NORM 
          0                 1           2             1    1     1       0.2129889824E-02       1    1    1         0.1105749897E+00      0.2516774539E+00
          0                 2           2             1    1     1      -0.2071803485E-03       1    1    1        -0.1105750880E-01      0.2523499454E-01
          0                 3           2             4    7     1      -0.1154301407E-01       4    8    1        -0.6199674202E+00      0.1525202375E+01
          0                 4           2             4    7     1       0.1201600645E-01       5    8    1         0.6633927559E+00      0.1625128936E+01
          0                 5           2             4    7     1      -0.4781662993E-03       4    6    1        -0.2749725399E-01      0.6663354688E-01
          0                 6           1             4    7     1       0.5896964313E-05       4    6    1         0.3485347611E-03      0.8469744777E-03

    ------------------------------------------------
       NWT REQUIRED            6 OUTER ITERATIONS 
       AND A TOTAL OF         11 INNER ITERATIONS.
    ------------------------------------------------

 NO OUTPUT CONTROL FOR STRESS PERIOD    5   TIME STEP   25
 
 SOLVING FOR HEAD 
                                                   Max.-Head-Change                         Max.-Flux-Residual
  Residual-Control   Outer-Iter.   Inner-Iter.     Column Row Layer    Maximum-Head-Change  Column Row Layer    Maximum-Flux-Residual          L2-NORM 
          0                 1           2             1    1     1       0.2127515770E-02       1    1    1         0.1104514952E+00      0.2469786616E+00
          0                 2           2             1    1     1      -0.2069494170E-03       1    1    1        -0.1104515930E-01      0.2478497839E-01
          0                 3           2             4    7     1      -0.1154300843E-01       4    8    1        -0.6199671172E+00      0.1525202419E+01
          0                 4           2             4    7     1       0.1201599614E-01       5    8    1         0.6633921363E+00      0.1625138096E+01
          0                 5           2             4    7     1      -0.4781604602E-03       4    6    1        -0.2750677349E-01      0.6663701565E-01
          0                 6           1             4    7     1       0.5896892847E-05       4    6    1         0.3486555111E-03      0.8470150781E-03

    ------------------------------------------------
       NWT REQUIRED            6 OUTER ITERATIONS 
       AND A TOTAL OF         11 INNER ITERATIONS.
    ------------------------------------------------

 NO OUTPUT CONTROL FOR STRESS PERIOD    5   TIME STEP   26
 
 SOLVING FOR HEAD 
                                                   Max.-Head-Change                         Max.-Flux-Residual
  Residual-Control   Outer-Iter.   Inner-Iter.     Column Row Layer    Maximum-Head-Change  Column Row Layer    Maximum-Flux-Residual          L2-NORM 
          0                 1           2             1    1     1       0.2125127519E-02       1    1    1         0.1103272650E+00      0.2431984308E+00
          0                 2           2             1    1     1      -0.2067171049E-03       1    1    1        -0.1103273625E-01      0.2442301038E-01
          0                 3           2             4    7     1      -0.1154300343E-01       4    8    1        -0.6199669370E+00      0.1525202568E+01
          0                 4           2             4    7     1       0.1201598585E-01       5    8    1         0.6633915201E+00      0.1625139995E+01
          0                 5           2             4    7     1      -0.4781545969E-03       4    6    1        -0.2751618198E-01      0.6663998374E-01
          0                 6           1             4    7     1       0.5896820261E-05       4    6    1         0.3487748081E-03      0.8470529149E-03

    ------------------------------------------------
       NWT REQUIRED            6 OUTER ITERATIONS 
       AND A TOTAL OF         11 INNER ITERATIONS.
    ------------------------------------------------

 NO OUTPUT CONTROL FOR STRESS PERIOD    5   TIME STEP   27
 
 SOLVING FOR HEAD 
                                                   Max.-Head-Change                         Max.-Flux-Residual
  Residual-Control   Outer-Iter.   Inner-Iter.     Column Row Layer    Maximum-Head-Change  Column Row Layer    Maximum-Flux-Residual          L2-NORM 
          0                 1           2             1    1     1       0.2122768939E-02       1    1    1         0.1102045752E+00      0.2402042023E+00
          0                 2           2             1    1     1      -0.2064876789E-03       1    1    1        -0.1102046723E-01      0.2413479699E-01
          0                 3           2             4    7     1      -0.1154299795E-01       4    8    1        -0.6199666324E+00      0.1525202566E+01
          0                 4           2             4    7     1       0.1201587669E-01       5    8    1         0.6633905498E+00      0.1625139331E+01
          0                 5           2             4    7     1      -0.4780496871E-03       5    8    1        -0.2713250386E-01      0.6647793254E-01
          0                 6           1             4    7     1       0.5895525581E-05       5    8    1         0.3439549782E-03      0.8450013321E-03

    ------------------------------------------------
       NWT REQUIRED            6 OUTER ITERATIONS 
       AND A TOTAL OF         11 INNER ITERATIONS.
    ------------------------------------------------

 NO OUTPUT CONTROL FOR STRESS PERIOD    5   TIME STEP   28
 
 SOLVING FOR HEAD 
                                                   Max.-Head-Change                         Max.-Flux-Residual
  Residual-Control   Outer-Iter.   Inner-Iter.     Column Row Layer    Maximum-Head-Change  Column Row Layer    Maximum-Flux-Residual          L2-NORM 
          0                 1           2             4   13     1       0.4626044435E-02       4   13    1         0.2664434256E+00      0.5349963040E+00
          0                 2           2             7   13     1      -0.1329985842E-02       7   13    1        -0.7375533132E-01      0.8904937482E-01
          0                 3           2             4    7     1      -0.1154299290E-01       4    8    1        -0.6199664683E+00      0.1525193553E+01
          0                 4           2             4    7     1       0.1201586408E-01       4    8    1         0.6633874031E+00      0.1624983715E+01
          0                 5           2             4    7     1      -0.4780414832E-03       4    8    1        -0.2712893761E-01      0.6645180703E-01
          0                 6           1             4    7     1       0.5898831170E-05       4    7    1         0.3440719106E-03      0.8427892148E-03

    ------------------------------------------------
       NWT REQUIRED            6 OUTER ITERATIONS 
       AND A TOTAL OF         11 INNER ITERATIONS.
    ------------------------------------------------

 NO OUTPUT CONTROL FOR STRESS PERIOD    5   TIME STEP   29
 
 SOLVING FOR HEAD 
                                                   Max.-Head-Change                         Max.-Flux-Residual
  Residual-Control   Outer-Iter.   Inner-Iter.     Column Row Layer    Maximum-Head-Change  Column Row Layer    Maximum-Flux-Residual          L2-NORM 
          0                 1           2             4   13     1       0.2059569176E-01       4   13    1         0.1189437533E+01      0.2140884269E+01
          0                 2           2             4   13     1      -0.1981810246E-02       4   13    1        -0.1176817872E+00      0.2080395632E+00
          0                 3           2             4    7     1      -0.1154298436E-01       4    8    1        -0.6199661057E+00      0.1524823228E+01
          0                 4           2             4    7     1       0.1201584655E-01       4    8    1         0.6633864438E+00      0.1624979546E+01
          0                 5           2             4    7     1      -0.4780295819E-03       4    8    1        -0.2712826258E-01      0.6645008061E-01
          0                 6           1             4    7     1       0.5895277354E-05       4    7    1         0.3438646468E-03      0.8422779281E-03

    ------------------------------------------------
       NWT REQUIRED            6 OUTER ITERATIONS 
       AND A TOTAL OF         11 INNER ITERATIONS.
    ------------------------------------------------

 NO OUTPUT CONTROL FOR STRESS PERIOD    5   TIME STEP   30



 STREAM LISTING     PERIOD      5   STEP       30

 LAYER ROW COL. STREAM  RCH.  FLOW INTO     FLOW TO   FLOW OUT OF   OVRLND.     DIRECT     STREAM       STREAM     STREAM     STREAM   STREAMBED  STREAMBED
                SEG.NO.  NO.  STRM. RCH.    AQUIFER    STRM. RCH.    RUNOFF     PRECIP       ET          HEAD       DEPTH      WIDTH   CONDCTNC.   GRADIENT

   1    1    1     1     1    7.4250E+01  4.1989E-01   7.3830E+01  0.000E+00  0.000E+00  0.000E+00  1.09474E+03  1.690E+00  1.990E+01  8.954E-02  1.563E+00
   1    2    2     1     2    7.3830E+01  6.5045E-01   7.3180E+01  0.000E+00  0.000E+00  0.000E+00  1.08974E+03  1.684E+00  1.984E+01  1.389E-01  1.561E+00
   1    3    3     1     3    7.3180E+01  5.5490E-01   7.2625E+01  0.000E+00  0.000E+00  0.000E+00  1.08410E+03  1.677E+00  1.977E+01  1.186E-01  1.559E+00
   1    3    4     1     4    7.2625E+01  5.1113E-01   7.2114E+01  0.000E+00  0.000E+00  0.000E+00  1.07908E+03  1.671E+00  1.972E+01  1.094E-01  1.557E+00
   1    4    5     2     1    7.0114E+01  4.0857E-01   6.9705E+01  0.000E+00  0.000E+00  0.000E+00  1.07417E+03  2.238E+00  1.200E+01  7.800E-02  1.746E+00
   1    5    6     2     2    6.9705E+01  3.1387E-01   6.9391E+01  0.000E+00  0.000E+00  0.000E+00  1.06874E+03  2.231E+00  1.200E+01  6.000E-02  1.744E+00
   1    6    6     2     3    6.9391E+01  3.1350E-01   6.9078E+01  0.000E+00  0.000E+00  0.000E+00  1.06402E+03  2.225E+00  1.200E+01  6.000E-02  1.742E+00
   1    7    6     2     4    6.9078E+01  3.1314E-01   6.8765E+01  0.000E+00  0.000E+00  0.000E+00  1.05929E+03  2.219E+00  1.200E+01  6.000E-02  1.740E+00
   1    8    6     2     5    6.8765E+01  3.1278E-01   6.8452E+01  0.000E+00  0.000E+00  0.000E+00  1.05457E+03  2.213E+00  1.200E+01  6.000E-02  1.738E+00
   1    3    5     3     1    2.0000E+00  2.8252E-01   1.7175E+00  0.000E+00  0.000E+00  0.000E+00  1.07555E+03  1.909E+00  9.636E+00  7.227E-02  1.955E+00
   1    3    6     3     2    1.7175E+00  2.4905E-01   1.4684E+00  0.000E+00  0.000E+00  0.000E+00  1.07264E+03  1.727E+00  8.909E+00  6.682E-02  1.864E+00
   1    3    7     3     3    1.4684E+00  1.9718E-01   1.2712E+00  0.000E+00  0.000E+00  0.000E+00  1.06987E+03  1.555E+00  8.218E+00  5.547E-02  1.777E+00
   1    4    8     3     4    1.2712E+00  2.2567E-01   1.0456E+00  0.000E+00  0.000E+00  0.000E+00  1.06682E+03  1.364E+00  7.455E+00  6.709E-02  1.682E+00
   1    5    8     3     5    1.0456E+00  1.5790E-01   8.8768E-01  0.000E+00  0.000E+00  0.000E+00  1.06362E+03  1.164E+00  6.655E+00  4.991E-02  1.582E+00
   1    6    8     3     6    8.8768E-01  5.5980E-02   8.3170E-01  0.000E+00  0.000E+00  0.000E+00  1.06158E+03  1.036E+00  6.145E+00  1.844E-02  1.518E+00
   1    5   10     4     1    1.0000E+01  9.0919E-02   9.9091E+00  0.000E+00  0.000E+00  0.000E+00  1.07836E+03  6.368E-01  1.000E+01  2.500E-02  1.212E+00
   1    5    9     4     2    9.9091E+00  1.8158E-01   9.7275E+00  0.000E+00  0.000E+00  0.000E+00  1.07154E+03  6.315E-01  1.000E+01  5.000E-02  1.211E+00
   1    6    8     4     3    9.7275E+00  1.2689E-01   9.6006E+00  0.000E+00  0.000E+00  0.000E+00  1.06381E+03  6.256E-01  1.000E+01  3.500E-02  1.209E+00
   1    6    8     5     1    1.0432E+01  2.2686E-01   1.0205E+01  0.000E+00  0.000E+00  0.000E+00  1.05868E+03  6.790E-01  1.542E+01  6.166E-02  1.226E+00
   1    7    7     5     2    1.0205E+01  2.7894E-01   9.9265E+00  0.000E+00  0.000E+00  0.000E+00  1.05417E+03  6.732E-01  1.519E+01  7.594E-02  1.224E+00
   1    8    7     5     3    9.9265E+00  1.9221E-01   9.7343E+00  0.000E+00  0.000E+00  0.000E+00  1.04992E+03  6.676E-01  1.497E+01  5.241E-02  1.223E+00
   1    8    6     5     4    9.7343E+00  1.3577E-01   9.5985E+00  0.000E+00  0.000E+00  0.000E+00  1.04691E+03  6.637E-01  1.482E+01  3.706E-02  1.221E+00
   1    9    6     6     1    7.4331E+01  3.2069E-01   7.4010E+01  0.000E+00  0.000E+00  0.000E+00  1.04507E+03  2.345E+00  1.200E+01  6.000E-02  1.782E+00
   1   10    7     6     2    7.4010E+01  3.2032E-01   7.3690E+01  0.000E+00  0.000E+00  0.000E+00  1.04052E+03  2.339E+00  1.200E+01  6.000E-02  1.780E+00
   1   11    7     6     3    7.3690E+01  3.1996E-01   7.3370E+01  0.000E+00  0.000E+00  0.000E+00  1.03597E+03  2.333E+00  1.200E+01  6.000E-02  1.778E+00
   1   12    7     6     4    7.3370E+01  3.1959E-01   7.3050E+01  0.000E+00  0.000E+00  0.000E+00  1.03142E+03  2.327E+00  1.200E+01  6.000E-02  1.776E+00
   1   13    7     6     5    7.3050E+01  2.6437E-02   7.3024E+01  0.000E+00  0.000E+00  0.000E+00  1.02823E+03  2.323E+00  1.200E+01  2.400E-02  3.672E-01
   1   14    9     7     1    1.5000E+02  1.3357E+00   1.4866E+02  0.000E+00  0.000E+00  0.000E+00  1.03987E+03  2.288E+00  5.529E+01  5.593E-01  7.961E-01
   1   13    8     7     2    1.4866E+02  1.8242E+00   1.4684E+02  0.000E+00  0.000E+00  0.000E+00  1.03478E+03  2.279E+00  5.526E+01  6.148E-01  9.891E-01
   1   13    7     7     3    1.4684E+02  1.4292E+00   1.4541E+02  0.000E+00  0.000E+00  0.000E+00  1.02969E+03  2.271E+00  5.522E+01  5.585E-01  8.531E-01
   1   13    6     8     1    2.1843E+02  1.0884E+00   2.1735E+02  0.000E+00  0.000E+00  0.000E+00  1.02512E+03  3.240E+00  4.698E+01  4.788E-01  7.578E-01
   1   13    5     8     2    2.1735E+02  2.6234E-01   2.1708E+02  0.000E+00  0.000E+00  0.000E+00  1.01886E+03  3.236E+00  4.693E+01  4.782E-01  1.829E-01
   1   13    4     8     3    2.1708E+02 -1.6320E+00   2.1872E+02  0.000E+00  0.000E+00  0.000E+00  1.01262E+03  3.240E+00  4.698E+01  4.788E+00 -1.136E-01
   1   13    3     8     4    2.1872E+02 -2.8539E+00   2.2157E+02  0.000E+00  0.000E+00  0.000E+00  1.00638E+03  3.253E+00  4.716E+01  4.806E+00 -1.979E-01
   1   13    2     8     5    2.2157E+02 -1.6426E+00   2.2321E+02  0.000E+00  0.000E+00  0.000E+00  1.00014E+03  3.265E+00  4.734E+01  4.825E+00 -1.135E-01
   1   13    1     8     6    2.2321E+02 -1.4831E+00   2.2470E+02  0.000E+00  0.000E+00  0.000E+00  9.95149E+02  3.274E+00  4.747E+01  2.902E+00 -1.703E-01
   1    8    6     9     1    3.7200E+00  0.0000E+00   3.7200E+00  0.000E+00  0.000E+00  0.000E+00  1.08000E+03  1.252E+00  4.000E+00  0.000E+00  1.417E+00
   1    8    5     9     2    3.7200E+00  0.0000E+00   3.7200E+00  0.000E+00  0.000E+00  0.000E+00  1.07950E+03  1.252E+00  4.000E+00  0.000E+00  1.417E+00





UNSATURATED ZONE PACKAGE VOLUMETRIC BUDGET FOR  TIME STEP    30 STRESS PERIOD    5
  ------------------------------------------------------------------------------



     CUMULATIVE VOLUMES      L**3       RATES FOR THIS TIME STEP      L**3/T
     ------------------                 ------------------------

           IN:                                      IN:
           ---                                      ---
        INFILTRATION =    18775379.2639          INFILTRATION =           4.5676

          OUT:                                     OUT:
          ----                                     ----
              UZF ET =    18618041.4193                UZF ET =           4.5675
        UZF RECHARGE =       73224.0000          UZF RECHARGE =       0.0000E+00

            IN - OUT =       84113.8447              IN - OUT =       1.1086E-04

          STORAGE:                                 STORAGE:
          --------                                 --------
      STORAGE CHANGE =       84113.3571        STORAGE CHANGE =       1.1094E-04

 PERCENT DISCREPANCY IS DIFFERENCE BETWEEN IN-OUT MINUS CHANGE IN STORAGE
 DIVIDED BY THE AVERAGE OF IN AND OUT TIMES 100

 PERCENT DISCREPANCY =           0.00     PERCENT DISCREPANCY =           0.00






1
  VOLUMETRIC BUDGET FOR AGRICULTURAL FIELDS AT  END OF TIME STEP   30, STRESS PERIOD   5
  ------------------------------------------------------------------------------

     CUMULATIVE VOLUMES      L**3       RATES FOR THIS TIME STEP      L**3/T
     ------------------                 ------------------------

           IN:                                      IN:
           ---                                      ---
               AG WELLS  =           1.3377                 AG WELLS  =       1.1921E-06
      DIVERSION SEGMENTS =     9786261.0000        DIVERSION SEGMENTS =           3.7200
       IRRIGATION PONDS  =           0.0000         IRRIGATION PONDS  =           0.0000
           GW IRRIGATION =           0.0000             GW IRRIGATION =           0.0000
           SW IRRIGATION =           0.0000             SW IRRIGATION =           0.0000
        SYSTEM LOSSES GW =           0.0000          SYSTEM LOSSES GW =           0.0000
        SYSTEM LOSSES SW =           0.0000          SYSTEM LOSSES SW =           0.0000

                TOTAL IN =     9786262.0000                  TOTAL IN =           3.7200

          OUT:                                     OUT:
          ----                                     ----
               AG WELLS  =           0.0000                 AG WELLS  =           0.0000
      DIVERSION SEGMENTS =           0.0000        DIVERSION SEGMENTS =           0.0000
       IRRIGATION PONDS  =           0.0000         IRRIGATION PONDS  =           0.0000
           GW IRRIGATION =           1.3377             GW IRRIGATION =       1.1921E-06
           SW IRRIGATION =     9786455.0000             SW IRRIGATION =           3.7201
        SYSTEM LOSSES GW =           0.0000          SYSTEM LOSSES GW =           0.0000
        SYSTEM LOSSES SW =           0.0000          SYSTEM LOSSES SW =           0.0000

               TOTAL OUT =     9786456.0000                 TOTAL OUT =           3.7201

                IN - OUT =        -194.0000                  IN - OUT =      -7.4148E-05

     PERCENT DISCREPANCY =          -0.00         PERCENT DISCREPANCY =          -0.00



1
  VOLUMETRIC BUDGET FOR ENTIRE MODEL AT END OF TIME STEP   30, STRESS PERIOD   5
  ------------------------------------------------------------------------------

     CUMULATIVE VOLUMES      L**3       RATES FOR THIS TIME STEP      L**3/T
     ------------------                 ------------------------

           IN:                                      IN:
           ---                                      ---
             STORAGE     =     8420219.0000               STORAGE     =           0.3982
       CONSTANT HEAD     =           0.0000         CONSTANT HEAD     =           0.0000
     HEAD DEP BOUNDS     =     3030241.0000       HEAD DEP BOUNDS     =           0.2858
      STREAM LEAKAGE     =   125929432.0000        STREAM LEAKAGE     =          13.4466
        UZF RECHARGE     =       73223.9531          UZF RECHARGE     =           0.0000
               GW ET     =           0.0000                 GW ET     =           0.0000
     SURFACE LEAKAGE     =           0.0000       SURFACE LEAKAGE     =           0.0000
           AG WELLS      =           0.0000             AG WELLS      =           0.0000

                TOTAL IN =   137453104.0000                  TOTAL IN =          14.1305

          OUT:                                     OUT:
          ----                                     ----
             STORAGE     =    21244028.0000               STORAGE     =           6.2278
       CONSTANT HEAD     =           0.0000         CONSTANT HEAD     =           0.0000
     HEAD DEP BOUNDS     =     3085007.2500       HEAD DEP BOUNDS     =           0.2911
      STREAM LEAKAGE     =   113078296.0000        STREAM LEAKAGE     =           7.6116
        UZF RECHARGE     =           0.0000          UZF RECHARGE     =           0.0000
               GW ET     =       49568.4805                 GW ET     =           0.0000
     SURFACE LEAKAGE     =           0.0000       SURFACE LEAKAGE     =           0.0000
           AG WELLS      =           1.3377             AG WELLS      =       1.1921E-06

               TOTAL OUT =   137456896.0000                 TOTAL OUT =          14.1305

                IN - OUT =       -3792.0000                  IN - OUT =       3.5286E-05

     PERCENT DISCREPANCY =          -0.00         PERCENT DISCREPANCY =           0.00






         TIME SUMMARY AT END OF TIME STEP   30 IN STRESS PERIOD    5
                    SECONDS     MINUTES      HOURS       DAYS        YEARS
                    -----------------------------------------------------------
   TIME STEP LENGTH  87667.      1461.1      24.352      1.0147     2.77799E-03
 STRESS PERIOD TIME 2.63000E+06  43833.      730.56      30.440     8.33397E-02
         TOTAL TIME 1.06064E+07 1.76773E+05  2946.2      122.76     0.33610    
1
1
                            STRESS PERIOD NO.    6, LENGTH =   2630000.    
                            -----------------------------------------------

                              NUMBER OF TIME STEPS =    30

                               MULTIPLIER FOR DELT =     1.000

                            INITIAL TIME STEP SIZE =   87666.66    

 REUSING NON-PARAMETER GHB CELLS FROM LAST STRESS PERIOD

      2 GHB CELLS

 REUSING STREAM SEGMENT DATA FROM LAST STRESS PERIOD



            AREAL INFILTRATION RATE
 READING ON UNIT   19 WITH FORMAT: (FREE)              

            1           2           3           4           5           6           7           8           9          10
 ........................................................................................................................
   1   1.0000E-10  2.0000E-10   0.000       0.000       0.000       0.000       0.000       0.000       0.000       0.000    
   2   2.0000E-10  1.0000E-10  2.0000E-10   0.000       0.000      8.0000E-10  8.0000E-10  5.0000E-10   0.000       0.000    
   3    0.000      5.0000E-10  1.0000E-10  1.0000E-10  8.0000E-10  8.0000E-10  5.0000E-10  5.0000E-10   0.000       0.000    
   4   8.0000E-10  5.0000E-10  1.0000E-10  1.0000E-10  1.0000E-10  1.0000E-10  1.0000E-10  1.0000E-10  2.0000E-10   0.000    
   5   8.0000E-10  5.0000E-10  1.0000E-10  1.0000E-10  1.0000E-10  1.0000E-10  1.0000E-10  1.0000E-10  1.0000E-10  1.0000E-10
   6   8.0000E-10  5.0000E-10  5.0000E-10  2.0000E-10  2.0000E-10  1.0000E-10  1.0000E-10  1.0000E-10  1.0000E-10  5.0000E-10
   7   8.0000E-10  5.0000E-10  5.0000E-10  2.0000E-10  2.0000E-10  1.0000E-10  1.0000E-10  2.0000E-10  2.0000E-10   0.000    
   8    0.000      5.0000E-10  5.0000E-10  2.0000E-10  2.0000E-10  1.0000E-10  1.0000E-10  2.0000E-10  5.0000E-10   0.000    
   9    0.000      5.0000E-10  5.0000E-10  2.0000E-10  2.0000E-10  1.0000E-10  1.0000E-10  2.0000E-10  5.0000E-10   0.000    
  10    0.000      5.0000E-10  5.0000E-10  2.0000E-10  2.0000E-10  1.0000E-10  1.0000E-10  2.0000E-10  5.0000E-10  8.0000E-10
  11    0.000      1.0000E-10  1.0000E-10  1.0000E-10  1.0000E-10  1.0000E-10  1.0000E-10  2.0000E-10  5.0000E-10   0.000    
  12   1.0000E-10  1.0000E-10  1.0000E-10  1.0000E-10  1.0000E-10  1.0000E-10  1.0000E-10  1.0000E-10  2.0000E-10   0.000    
  13   1.0000E-10  1.0000E-10  2.0000E-10  2.0000E-10  2.0000E-10  2.0000E-10  2.0000E-10  1.0000E-10  1.0000E-10   0.000    
  14    0.000      2.0000E-10  5.0000E-10  5.0000E-10  5.0000E-10  5.0000E-10  5.0000E-10  2.0000E-10  1.0000E-10   0.000    
  15    0.000       0.000      8.0000E-10  8.0000E-10  8.0000E-10  8.0000E-10   0.000       0.000       0.000       0.000    

                  ET RATE =  5.000000E-08

 USING ET EXTINCTION DEPTH FROM PREVIOUS STRESS PERIOD. CURRENT PERIOD IS:       6

 USING EXTINCTION WATER CONTENT FROM PREVIOUS STRESS PERIOD. CURRENT PERIOD IS:       6

 USING AIR ENTRY PRESSURE FROM PREVIOUS STRESS PERIOD. CURRENT PERIOD IS:       6

 USING ROOT PRESSURE HEAD FROM PREVIOUS STRESS PERIOD. CURRENT PERIOD IS:       6

 USING ROOT ACTIVITY FROM PREVIOUS STRESS PERIOD. CURRENT PERIOD IS:       6

 PROCESSING AG STRESS PERIOD DATA

 READING AG STRESS PERIOD DATA

 READING IRRIGATION SEGMENT

 READING IRRIGATION WELL

 READING SUPPLEMENTAL WELL

 NO IRRPOND OR REUSING IRRPOND DATA FROM LAST STRESS PERIOD

 END PROCESSING AG STRESS PERIOD DATA OPTIONS
 
 SOLVING FOR HEAD 
                                                   Max.-Head-Change                         Max.-Flux-Residual
  Residual-Control   Outer-Iter.   Inner-Iter.     Column Row Layer    Maximum-Head-Change  Column Row Layer    Maximum-Flux-Residual          L2-NORM 
          0                 1           2             4   13     1       0.1568267109E-01       4   13    1         0.9044032202E+00      0.1708523817E+01
          0                 2           2             4    7     1      -0.1164166517E-01       4    6    1        -0.6259215025E+00      0.1563096207E+01
          0                 3           2             4    7     1       0.1210557294E-01       4    6    1         0.6683905796E+00      0.1637267171E+01
          0                 4           2             4    7     1      -0.4817001026E-03       5    6    1        -0.2733736804E-01      0.6696400036E-01
          0                 5           1             4    7     1       0.5945017598E-05       5    6    1         0.3467665397E-03      0.8494252697E-03

    ------------------------------------------------
       NWT REQUIRED            5 OUTER ITERATIONS 
       AND A TOTAL OF          9 INNER ITERATIONS.
    ------------------------------------------------

 NO OUTPUT CONTROL FOR STRESS PERIOD    6   TIME STEP    1
 
 SOLVING FOR HEAD 
                                                   Max.-Head-Change                         Max.-Flux-Residual
  Residual-Control   Outer-Iter.   Inner-Iter.     Column Row Layer    Maximum-Head-Change  Column Row Layer    Maximum-Flux-Residual          L2-NORM 
          0                 1           2             4   13     1       0.1729310118E-01       4   13    1         0.9977654760E+00      0.1881120320E+01
          0                 2           2             4   13     1      -0.1663909748E-02       4   13    1        -0.9871036029E-01      0.1829840864E+00
          0                 3           2             4    7     1      -0.2295359212E-01       4    8    1        -0.1232803740E+01      0.3033240767E+01
          0                 4           2             4    7     1       0.2389359130E-01       4    7    1         0.1319140517E+01      0.3231137825E+01
          0                 5           2             4    7     1      -0.9510876896E-03       4    6    1        -0.5440209588E-01      0.1323741368E+00
          0                 6           1             4    7     1       0.1174282788E-04       4    6    1         0.6903505837E-03      0.1679813482E-02

    ------------------------------------------------
       NWT REQUIRED            6 OUTER ITERATIONS 
       AND A TOTAL OF         11 INNER ITERATIONS.
    ------------------------------------------------

 NO OUTPUT CONTROL FOR STRESS PERIOD    6   TIME STEP    2
 
 SOLVING FOR HEAD 
                                                   Max.-Head-Change                         Max.-Flux-Residual
  Residual-Control   Outer-Iter.   Inner-Iter.     Column Row Layer    Maximum-Head-Change  Column Row Layer    Maximum-Flux-Residual          L2-NORM 
          0                 1           2             2   13     1       0.1590929651E-01       4   13    1         0.9159012358E+00      0.1769289289E+01
          0                 2           2             3   13     1      -0.1725079250E-02       3   13    1        -0.1052442307E+00      0.1848632959E+00
          0                 3           2             4    7     1      -0.2299164150E-01       4    8    1        -0.1234847357E+01      0.3038156599E+01
          0                 4           2             4    7     1       0.2393320704E-01       4    7    1         0.1321327556E+01      0.3236497348E+01
          0                 5           2             4    7     1      -0.9526665702E-03       4    6    1        -0.5450091784E-01      0.1325971701E+00
          0                 6           1             4    7     1       0.1176230991E-04       4    6    1         0.6916038651E-03      0.1682645760E-02

    ------------------------------------------------
       NWT REQUIRED            6 OUTER ITERATIONS 
       AND A TOTAL OF         11 INNER ITERATIONS.
    ------------------------------------------------

 NO OUTPUT CONTROL FOR STRESS PERIOD    6   TIME STEP    3
 
 SOLVING FOR HEAD 
                                                   Max.-Head-Change                         Max.-Flux-Residual
  Residual-Control   Outer-Iter.   Inner-Iter.     Column Row Layer    Maximum-Head-Change  Column Row Layer    Maximum-Flux-Residual          L2-NORM 
          0                 1           2             2   13     1       0.1486439097E-01       4   13    1         0.8423750321E+00      0.1662374346E+01
          0                 2           2             4   13     1      -0.1688609299E-02       4   13    1        -0.1042422376E+00      0.1736505346E+00
          0                 3           2             4    7     1      -0.2299973159E-01       4    8    1        -0.1235282015E+01      0.3039201084E+01
          0                 4           2             4    7     1       0.2394163921E-01       4    7    1         0.1321792976E+01      0.3237640519E+01
          0                 5           2             4    7     1      -0.9530042964E-03       4    6    1        -0.5452924970E-01      0.1326476522E+00
          0                 6           1             4    7     1       0.1176647779E-04       4    6    1         0.6919631896E-03      0.1683284514E-02

    ------------------------------------------------
       NWT REQUIRED            6 OUTER ITERATIONS 
       AND A TOTAL OF         11 INNER ITERATIONS.
    ------------------------------------------------

 NO OUTPUT CONTROL FOR STRESS PERIOD    6   TIME STEP    4
 
 SOLVING FOR HEAD 
                                                   Max.-Head-Change                         Max.-Flux-Residual
  Residual-Control   Outer-Iter.   Inner-Iter.     Column Row Layer    Maximum-Head-Change  Column Row Layer    Maximum-Flux-Residual          L2-NORM 
          0                 1           2             2   13     1       0.1390180168E-01       2   13    1         0.7876313364E+00      0.1557692564E+01
          0                 2           2             2   13     1      -0.1291608449E-02       4   13    1        -0.7587919907E-01      0.1519588249E+00
          0                 3           2             4    7     1      -0.2300718775E-01       4    8    1        -0.1235682527E+01      0.3040241742E+01
          0                 4           2             4    7     1       0.2394941283E-01       4    7    1         0.1322222037E+01      0.3238694919E+01
          0                 5           2             4    7     1      -0.9533158044E-03       4    6    1        -0.5455606257E-01      0.1326945021E+00
          0                 6           1             4    7     1       0.1177032195E-04       4    6    1         0.6923032402E-03      0.1683882019E-02

    ------------------------------------------------
       NWT REQUIRED            6 OUTER ITERATIONS 
       AND A TOTAL OF         11 INNER ITERATIONS.
    ------------------------------------------------

 NO OUTPUT CONTROL FOR STRESS PERIOD    6   TIME STEP    5
 
 SOLVING FOR HEAD 
                                                   Max.-Head-Change                         Max.-Flux-Residual
  Residual-Control   Outer-Iter.   Inner-Iter.     Column Row Layer    Maximum-Head-Change  Column Row Layer    Maximum-Flux-Residual          L2-NORM 
          0                 1           2             2   13     1       0.1301278286E-01       2   13    1         0.7373345368E+00      0.1459773546E+01
          0                 2           2             2   13     1      -0.1210635923E-02       2   13    1        -0.7051661953E-01      0.1425316958E+00
          0                 3           2             4    7     1      -0.2301407890E-01       4    8    1        -0.1236052780E+01      0.3041140209E+01
          0                 4           2             4    7     1       0.2395659953E-01       4    7    1         0.1322618694E+01      0.3239669639E+01
          0                 5           2             4    7     1      -0.9536039427E-03       4    6    1        -0.5458151096E-01      0.1327380612E+00
          0                 6           1             4    7     1       0.1177387734E-04       4    6    1         0.6926259966E-03      0.1684432418E-02

    ------------------------------------------------
       NWT REQUIRED            6 OUTER ITERATIONS 
       AND A TOTAL OF         11 INNER ITERATIONS.
    ------------------------------------------------

 NO OUTPUT CONTROL FOR STRESS PERIOD    6   TIME STEP    6
 
 SOLVING FOR HEAD 
                                                   Max.-Head-Change                         Max.-Flux-Residual
  Residual-Control   Outer-Iter.   Inner-Iter.     Column Row Layer    Maximum-Head-Change  Column Row Layer    Maximum-Flux-Residual          L2-NORM 
          0                 1           2             2   13     1       0.1219230817E-01       2   13    1         0.6908968668E+00      0.1374481014E+01
          0                 2           2             2   13     1      -0.1135620287E-02       2   13    1        -0.6615239465E-01      0.1343271783E+00
          0                 3           2             4    7     1      -0.2302046950E-01       4    8    1        -0.1236396054E+01      0.3041973509E+01
          0                 4           2             4    7     1       0.2396326631E-01       4    7    1         0.1322986647E+01      0.3240574105E+01
          0                 5           2             4    7     1      -0.9538713811E-03       4    6    1        -0.5460575469E-01      0.1327787570E+00
          0                 6           1             4    7     1       0.1177717732E-04       4    6    1         0.6929334513E-03      0.1684950255E-02

    ------------------------------------------------
       NWT REQUIRED            6 OUTER ITERATIONS 
       AND A TOTAL OF         11 INNER ITERATIONS.
    ------------------------------------------------

 NO OUTPUT CONTROL FOR STRESS PERIOD    6   TIME STEP    7
 
 SOLVING FOR HEAD 
                                                   Max.-Head-Change                         Max.-Flux-Residual
  Residual-Control   Outer-Iter.   Inner-Iter.     Column Row Layer    Maximum-Head-Change  Column Row Layer    Maximum-Flux-Residual          L2-NORM 
          0                 1           2             2   13     1       0.1143559858E-01       2   13    1         0.6480525074E+00      0.1300037791E+01
          0                 2           2             2   13     1      -0.1066228066E-02       2   13    1        -0.6211374029E-01      0.1271742187E+00
          0                 3           2             4    7     1      -0.2302641070E-01       4    8    1        -0.1236715190E+01      0.3042747745E+01
          0                 4           2             4    7     1       0.2396946631E-01       4    7    1         0.1323328829E+01      0.3241415449E+01
          0                 5           2             4    7     1      -0.9541202361E-03       4    6    1        -0.5462892173E-01      0.1328168435E+00
          0                 6           1             4    7     1       0.1178024813E-04       4    6    1         0.6932272804E-03      0.1685431076E-02

    ------------------------------------------------
       NWT REQUIRED            6 OUTER ITERATIONS 
       AND A TOTAL OF         11 INNER ITERATIONS.
    ------------------------------------------------

 NO OUTPUT CONTROL FOR STRESS PERIOD    6   TIME STEP    8
 
 SOLVING FOR HEAD 
                                                   Max.-Head-Change                         Max.-Flux-Residual
  Residual-Control   Outer-Iter.   Inner-Iter.     Column Row Layer    Maximum-Head-Change  Column Row Layer    Maximum-Flux-Residual          L2-NORM 
          0                 1           2             2   13     1       0.1073812708E-01       2   13    1         0.6085490185E+00      0.1234953265E+01
          0                 2           2             2   13     1      -0.1002115326E-02       2   13    1        -0.5838105222E-01      0.1209254903E+00
          0                 3           2             4    7     1      -0.2303194700E-01       4    8    1        -0.1237012671E+01      0.3043468958E+01
          0                 4           2             4    7     1       0.2397524576E-01       4    7    1         0.1323647792E+01      0.3242199947E+01
          0                 5           2             4    7     1      -0.9543523493E-03       4    6    1        -0.5465112375E-01      0.1328526044E+00
          0                 6           1             4    7     1       0.1178311193E-04       4    6    1         0.6935088381E-03      0.1685888269E-02

    ------------------------------------------------
       NWT REQUIRED            6 OUTER ITERATIONS 
       AND A TOTAL OF         11 INNER ITERATIONS.
    ------------------------------------------------

 NO OUTPUT CONTROL FOR STRESS PERIOD    6   TIME STEP    9
 
 SOLVING FOR HEAD 
                                                   Max.-Head-Change                         Max.-Flux-Residual
  Residual-Control   Outer-Iter.   Inner-Iter.     Column Row Layer    Maximum-Head-Change  Column Row Layer    Maximum-Flux-Residual          L2-NORM 
          0                 1           2             2   13     1       0.1009553934E-01       2   13    1         0.5721430188E+00      0.1177916003E+01
          0                 2           2             2   13     1      -0.9428481616E-03       2   13    1        -0.5492931984E-01      0.1154530879E+00
          0                 3           2             4    7     1      -0.2303712065E-01       4    8    1        -0.1237290578E+01      0.3044142799E+01
          0                 4           2             4    7     1       0.2398064856E-01       4    7    1         0.1323945961E+01      0.3242933535E+01
          0                 5           2             4    7     1      -0.9545694732E-03       4    6    1        -0.5467248247E-01      0.1328862874E+00
          0                 6           1             4    7     1       0.1178579112E-04       4    6    1         0.6937797225E-03      0.1686316074E-02

    ------------------------------------------------
       NWT REQUIRED            6 OUTER ITERATIONS 
       AND A TOTAL OF         11 INNER ITERATIONS.
    ------------------------------------------------

 NO OUTPUT CONTROL FOR STRESS PERIOD    6   TIME STEP   10
 
 SOLVING FOR HEAD 
                                                   Max.-Head-Change                         Max.-Flux-Residual
  Residual-Control   Outer-Iter.   Inner-Iter.     Column Row Layer    Maximum-Head-Change  Column Row Layer    Maximum-Flux-Residual          L2-NORM 
          0                 1           2             2   13     1       0.9503875218E-02       2   13    1         0.5386130052E+00      0.1127808564E+01
          0                 2           2             2   13     1      -0.8881807155E-03       2   13    1        -0.5174462330E-01      0.1106466352E+00
          0                 3           2             4    7     1      -0.2304196723E-01       4    8    1        -0.1237550919E+01      0.3044774497E+01
          0                 4           2             4    7     1       0.2398571169E-01       4    7    1         0.1324225375E+01      0.3243621237E+01
          0                 5           2             4    7     1      -0.9547730769E-03       4    6    1        -0.5469307188E-01      0.1329180887E+00
          0                 6           1             4    7     1       0.1178830386E-04       4    6    1         0.6940408630E-03      0.1686713673E-02

    ------------------------------------------------
       NWT REQUIRED            6 OUTER ITERATIONS 
       AND A TOTAL OF         11 INNER ITERATIONS.
    ------------------------------------------------

 NO OUTPUT CONTROL FOR STRESS PERIOD    6   TIME STEP   11
 
 SOLVING FOR HEAD 
                                                   Max.-Head-Change                         Max.-Flux-Residual
  Residual-Control   Outer-Iter.   Inner-Iter.     Column Row Layer    Maximum-Head-Change  Column Row Layer    Maximum-Flux-Residual          L2-NORM 
          0                 1           2             2   13     1       0.8959322520E-02       2   13    1         0.5077452871E+00      0.1083676783E+01
          0                 2           2             2   13     1      -0.8377639441E-03       2   13    1        -0.4880677830E-01      0.1064162146E+00
          0                 3           2             4    7     1      -0.2304651345E-01       4    8    1        -0.1237795221E+01      0.3045366190E+01
          0                 4           2             4    7     1       0.2399046286E-01       4    7    1         0.1324487567E+01      0.3244266736E+01
          0                 5           2             4    7     1      -0.9549642656E-03       4    6    1        -0.5471296054E-01      0.1329481797E+00
          0                 6           1             4    7     1       0.1179066314E-04       4    6    1         0.6942930813E-03      0.1687101243E-02

    ------------------------------------------------
       NWT REQUIRED            6 OUTER ITERATIONS 
       AND A TOTAL OF         11 INNER ITERATIONS.
    ------------------------------------------------

 NO OUTPUT CONTROL FOR STRESS PERIOD    6   TIME STEP   12
 
 SOLVING FOR HEAD 
                                                   Max.-Head-Change                         Max.-Flux-Residual
  Residual-Control   Outer-Iter.   Inner-Iter.     Column Row Layer    Maximum-Head-Change  Column Row Layer    Maximum-Flux-Residual          L2-NORM 
          0                 1           2             2   13     1       0.8458311459E-02       2   13    1         0.4793395004E+00      0.1044703598E+01
          0                 2           2             2   13     1      -0.7912197610E-03       2   13    1        -0.4609394280E-01      0.1026799339E+00
          0                 3           2             4    7     1      -0.2305079041E-01       4    8    1        -0.1238024970E+01      0.3045923155E+01
          0                 4           2             4    7     1       0.2399493444E-01       4    7    1         0.1324734321E+01      0.3244874463E+01
          0                 5           2             4    7     1      -0.9551443282E-03       4    6    1        -0.5473222699E-01      0.1329767111E+00
          0                 6           1             4    7     1       0.1179288486E-04       4    6    1         0.6945374339E-03      0.1687458973E-02

    ------------------------------------------------
       NWT REQUIRED            6 OUTER ITERATIONS 
       AND A TOTAL OF         11 INNER ITERATIONS.
    ------------------------------------------------

 NO OUTPUT CONTROL FOR STRESS PERIOD    6   TIME STEP   13
 
 SOLVING FOR HEAD 
                                                   Max.-Head-Change                         Max.-Flux-Residual
  Residual-Control   Outer-Iter.   Inner-Iter.     Column Row Layer    Maximum-Head-Change  Column Row Layer    Maximum-Flux-Residual          L2-NORM 
          0                 1           2             2   13     1       0.7997538102E-02       2   13    1         0.4532099729E+00      0.1010182106E+01
          0                 2           2             2   13     1      -0.7483903327E-03       2   13    1        -0.4359714405E-01      0.9937158518E-01
          0                 3           2             4    7     1      -0.2305481598E-01       4    8    1        -0.1238241220E+01      0.3046447470E+01
          0                 4           2             4    7     1       0.2399914490E-01       4    7    1         0.1324966660E+01      0.3245446905E+01
          0                 5           2             4    7     1      -0.9553140018E-03       4    6    1        -0.5475091791E-01      0.1330038085E+00
          0                 6           1             4    7     1       0.1179497866E-04       4    6    1         0.6947744773E-03      0.1687803937E-02

    ------------------------------------------------
       NWT REQUIRED            6 OUTER ITERATIONS 
       AND A TOTAL OF         11 INNER ITERATIONS.
    ------------------------------------------------

 NO OUTPUT CONTROL FOR STRESS PERIOD    6   TIME STEP   14
 
 SOLVING FOR HEAD 
                                                   Max.-Head-Change                         Max.-Flux-Residual
  Residual-Control   Outer-Iter.   Inner-Iter.     Column Row Layer    Maximum-Head-Change  Column Row Layer    Maximum-Flux-Residual          L2-NORM 
          0                 1           2             2   13     1       0.7573959656E-02       2   13    1         0.4291855889E+00      0.9795231083E+00
          0                 2           2             2   13     1      -0.7089315523E-03       2   13    1        -0.4129641081E-01      0.9643501066E-01
          0                 3           2             4    7     1      -0.2305861904E-01       4    8    1        -0.1238445523E+01      0.3046942735E+01
          0                 4           2             4    7     1       0.2400312430E-01       4    7    1         0.1325186240E+01      0.3245988140E+01
          0                 5           2             4    7     1      -0.9554744824E-03       4    6    1        -0.5476910578E-01      0.1330296525E+00
          0                 6           1             4    7     1       0.1179695866E-04       4    6    1         0.6950051352E-03      0.1688129425E-02

    ------------------------------------------------
       NWT REQUIRED            6 OUTER ITERATIONS 
       AND A TOTAL OF         11 INNER ITERATIONS.
    ------------------------------------------------

 NO OUTPUT CONTROL FOR STRESS PERIOD    6   TIME STEP   15
 
 SOLVING FOR HEAD 
                                                   Max.-Head-Change                         Max.-Flux-Residual
  Residual-Control   Outer-Iter.   Inner-Iter.     Column Row Layer    Maximum-Head-Change  Column Row Layer    Maximum-Flux-Residual          L2-NORM 
          0                 1           2             2   13     1       0.7184632020E-02       2   13    1         0.4071005824E+00      0.9522075340E+00
          0                 2           2             2   13     1      -0.6725867358E-03       2   13    1        -0.3917694620E-01      0.9381316636E-01
          0                 3           2             4    7     1      -0.2306220893E-01       4    8    1        -0.1238638571E+01      0.3047410663E+01
          0                 4           2             4    7     1       0.2400688407E-01       4    7    1         0.1325393694E+01      0.3246499081E+01
          0                 5           2             4    7     1      -0.9556262292E-03       4    6    1        -0.5478517135E-01      0.1330527685E+00
          0                 6           1             4    7     1       0.1179883134E-04       4    6    1         0.6952896683E-03      0.1688517582E-02

    ------------------------------------------------
       NWT REQUIRED            6 OUTER ITERATIONS 
       AND A TOTAL OF         11 INNER ITERATIONS.
    ------------------------------------------------

 NO OUTPUT CONTROL FOR STRESS PERIOD    6   TIME STEP   16
 
 SOLVING FOR HEAD 
                                                   Max.-Head-Change                         Max.-Flux-Residual
  Residual-Control   Outer-Iter.   Inner-Iter.     Column Row Layer    Maximum-Head-Change  Column Row Layer    Maximum-Flux-Residual          L2-NORM 
          0                 1           2             2   13     1       0.6826945898E-02       2   13    1         0.3868078596E+00      0.9277974868E+00
          0                 2           2             2    2     1      -0.6518458283E-03       2   13    1        -0.3722777242E-01      0.9147278179E-01
          0                 3           2             4    7     1      -0.2306560942E-01       4    8    1        -0.1238821249E+01      0.3047853561E+01
          0                 4           2             4    7     1       0.2401044525E-01       4    7    1         0.1325590184E+01      0.3246983798E+01
          0                 5           2             4    7     1      -0.9557700778E-03       4    6    1        -0.5480247530E-01      0.1330763066E+00
          0                 6           1             4    7     1       0.1180060656E-04       4    6    1         0.6955116351E-03      0.1688814377E-02

    ------------------------------------------------
       NWT REQUIRED            6 OUTER ITERATIONS 
       AND A TOTAL OF         11 INNER ITERATIONS.
    ------------------------------------------------

 NO OUTPUT CONTROL FOR STRESS PERIOD    6   TIME STEP   17
 
 SOLVING FOR HEAD 
                                                   Max.-Head-Change                         Max.-Flux-Residual
  Residual-Control   Outer-Iter.   Inner-Iter.     Column Row Layer    Maximum-Head-Change  Column Row Layer    Maximum-Flux-Residual          L2-NORM 
          0                 1           2             2    2     1       0.6666992351E-02       2   13    1         0.3681623434E+00      0.9059238731E+00
          0                 2           2             2    2     1      -0.6485180775E-03       2   13    1        -0.3543369583E-01      0.8937441365E-01
          0                 3           2             4    7     1      -0.2306883420E-01       4    8    1        -0.1238994495E+01      0.3048273878E+01
          0                 4           2             4    7     1       0.2401382389E-01       4    7    1         0.1325776595E+01      0.3247443882E+01
          0                 5           2             4    7     1      -0.9559066679E-03       4    6    1        -0.5481939674E-01      0.1330988625E+00
          0                 6           1             4    7     1       0.1180229218E-04       4    6    1         0.6957287860E-03      0.1689111143E-02

    ------------------------------------------------
       NWT REQUIRED            6 OUTER ITERATIONS 
       AND A TOTAL OF         11 INNER ITERATIONS.
    ------------------------------------------------

 NO OUTPUT CONTROL FOR STRESS PERIOD    6   TIME STEP   18
 
 SOLVING FOR HEAD 
                                                   Max.-Head-Change                         Max.-Flux-Residual
  Residual-Control   Outer-Iter.   Inner-Iter.     Column Row Layer    Maximum-Head-Change  Column Row Layer    Maximum-Flux-Residual          L2-NORM 
          0                 1           2             2    2     1       0.6633236334E-02       2   13    1         0.3510399054E+00      0.8862658859E+00
          0                 2           2             2    2     1      -0.6452345152E-03       2    2    1        -0.3459072815E-01      0.8748714806E-01
          0                 3           2             4    7     1      -0.2307189438E-01       4    8    1        -0.1239158906E+01      0.3048672610E+01
          0                 4           2             4    7     1       0.2401703154E-01       4    7    1         0.1325953565E+01      0.3247880849E+01
          0                 5           2             4    7     1      -0.9560364600E-03       4    6    1        -0.5483596484E-01      0.1331204784E+00
          0                 6           1             4    7     1       0.1180389356E-04       4    6    1         0.6959414336E-03      0.1689387376E-02

    ------------------------------------------------
       NWT REQUIRED            6 OUTER ITERATIONS 
       AND A TOTAL OF         11 INNER ITERATIONS.
    ------------------------------------------------

 NO OUTPUT CONTROL FOR STRESS PERIOD    6   TIME STEP   19
 
 SOLVING FOR HEAD 
                                                   Max.-Head-Change                         Max.-Flux-Residual
  Residual-Control   Outer-Iter.   Inner-Iter.     Column Row Layer    Maximum-Head-Change  Column Row Layer    Maximum-Flux-Residual          L2-NORM 
          0                 1           2             2    2     1       0.6599841084E-02       2    2    1         0.3441515231E+00      0.8685447296E+00
          0                 2           2             2    2     1      -0.6419860455E-03       2    2    1        -0.3441525025E-01      0.8578568298E-01
          0                 3           2             4    7     1      -0.2307480371E-01       4    8    1        -0.1239315318E+01      0.3049052240E+01
          0                 4           2             4    7     1       0.2402008427E-01       4    7    1         0.1326121981E+01      0.3248296913E+01
          0                 5           2             4    7     1      -0.9561600944E-03       4    6    1        -0.5485221893E-01      0.1331412424E+00
          0                 6           1             4    7     1       0.1180541899E-04       4    6    1         0.6961501408E-03      0.1689651966E-02

    ------------------------------------------------
       NWT REQUIRED            6 OUTER ITERATIONS 
       AND A TOTAL OF         11 INNER ITERATIONS.
    ------------------------------------------------

 NO OUTPUT CONTROL FOR STRESS PERIOD    6   TIME STEP   20
 
 SOLVING FOR HEAD 
                                                   Max.-Head-Change                         Max.-Flux-Residual
  Residual-Control   Outer-Iter.   Inner-Iter.     Column Row Layer    Maximum-Head-Change  Column Row Layer    Maximum-Flux-Residual          L2-NORM 
          0                 1           2             2    2     1       0.6566973621E-02       2    2    1         0.3424245646E+00      0.8525330067E+00
          0                 2           2             2    2     1      -0.6387889156E-03       2    2    1        -0.3424255296E-01      0.8424761834E-01
          0                 3           2             4    7     1      -0.2307757485E-01       4    8    1        -0.1239464211E+01      0.3049413421E+01
          0                 4           2             4    7     1       0.2402299156E-01       4    7    1         0.1326282368E+01      0.3248693308E+01
          0                 5           2             4    7     1      -0.9562779502E-03       4    6    1        -0.5486819048E-01      0.1331612322E+00
          0                 6           1             4    7     1       0.1180687363E-04       4    6    1         0.6963552541E-03      0.1689908931E-02

    ------------------------------------------------
       NWT REQUIRED            6 OUTER ITERATIONS 
       AND A TOTAL OF         11 INNER ITERATIONS.
    ------------------------------------------------

 NO OUTPUT CONTROL FOR STRESS PERIOD    6   TIME STEP   21
 
 SOLVING FOR HEAD 
                                                   Max.-Head-Change                         Max.-Flux-Residual
  Residual-Control   Outer-Iter.   Inner-Iter.     Column Row Layer    Maximum-Head-Change  Column Row Layer    Maximum-Flux-Residual          L2-NORM 
          0                 1           2             2    2     1       0.6534365872E-02       2    2    1         0.3407113202E+00      0.8380105250E+00
          0                 2           2             2    2     1      -0.6356170496E-03       2    2    1        -0.3407122710E-01      0.8285042654E-01
          0                 3           2             4    7     1      -0.2308021485E-01       4    8    1        -0.1239606154E+01      0.3049757994E+01
          0                 4           2             4    7     1       0.2402576253E-01       4    7    1         0.1326435228E+01      0.3249071329E+01
          0                 5           2             4    7     1      -0.9563903895E-03       4    6    1        -0.5488389366E-01      0.1331804942E+00
          0                 6           1             4    7     1       0.1180826061E-04       4    6    1         0.6965569846E-03      0.1690163270E-02

    ------------------------------------------------
       NWT REQUIRED            6 OUTER ITERATIONS 
       AND A TOTAL OF         11 INNER ITERATIONS.
    ------------------------------------------------

 NO OUTPUT CONTROL FOR STRESS PERIOD    6   TIME STEP   22
 
 SOLVING FOR HEAD 
                                                   Max.-Head-Change                         Max.-Flux-Residual
  Residual-Control   Outer-Iter.   Inner-Iter.     Column Row Layer    Maximum-Head-Change  Column Row Layer    Maximum-Flux-Residual          L2-NORM 
          0                 1           2             2    2     1       0.6502273258E-02       2    2    1         0.3390251931E+00      0.8248185372E+00
          0                 2           2             2    2     1      -0.6324952926E-03       2    2    1        -0.3390261302E-01      0.8158153227E-01
          0                 3           2             4    7     1      -0.2308273480E-01       4    8    1        -0.1239741559E+01      0.3050086747E+01
          0                 4           2             4    7     1       0.2402840873E-01       4    7    1         0.1326581198E+01      0.3249432471E+01
          0                 5           2             4    7     1      -0.9564978688E-03       4    6    1        -0.5489934050E-01      0.1331990602E+00
          0                 6           1             4    7     1       0.1180958710E-04       4    6    1         0.6967554523E-03      0.1690400389E-02

    ------------------------------------------------
       NWT REQUIRED            6 OUTER ITERATIONS 
       AND A TOTAL OF         11 INNER ITERATIONS.
    ------------------------------------------------

 NO OUTPUT CONTROL FOR STRESS PERIOD    6   TIME STEP   23
 
 SOLVING FOR HEAD 
                                                   Max.-Head-Change                         Max.-Flux-Residual
  Residual-Control   Outer-Iter.   Inner-Iter.     Column Row Layer    Maximum-Head-Change  Column Row Layer    Maximum-Flux-Residual          L2-NORM 
          0                 1           2             2    2     1       0.6470601664E-02       2    2    1         0.3373612248E+00      0.8127896378E+00
          0                 2           2             2    2     1      -0.6294144893E-03       2    2    1        -0.3373621482E-01      0.8042289075E-01
          0                 3           2             4    7     1      -0.2308513954E-01       4    8    1        -0.1239870883E+01      0.3050401038E+01
          0                 4           2             4    7     1       0.2403093698E-01       4    7    1         0.1326720656E+01      0.3249777728E+01
          0                 5           2             4    7     1      -0.9566006658E-03       4    6    1        -0.5491457238E-01      0.1332170021E+00
          0                 6           1             4    7     1       0.1181085557E-04       4    6    1         0.6969512256E-03      0.1690629327E-02

    ------------------------------------------------
       NWT REQUIRED            6 OUTER ITERATIONS 
       AND A TOTAL OF         11 INNER ITERATIONS.
    ------------------------------------------------

 NO OUTPUT CONTROL FOR STRESS PERIOD    6   TIME STEP   24
 
 SOLVING FOR HEAD 
                                                   Max.-Head-Change                         Max.-Flux-Residual
  Residual-Control   Outer-Iter.   Inner-Iter.     Column Row Layer    Maximum-Head-Change  Column Row Layer    Maximum-Flux-Residual          L2-NORM 
          0                 1           2             2    2     1       0.6439257404E-02       2    2    1         0.3357145349E+00      0.8018045704E+00
          0                 2           2             2    2     1      -0.6263655275E-03       2    2    1        -0.3357154450E-01      0.7936516882E-01
          0                 3           2             4    7     1      -0.2308743955E-01       4    8    1        -0.1239994482E+01      0.3050701096E+01
          0                 4           2             4    7     1       0.2403335446E-01       4    8    1         0.1326854000E+01      0.3250107983E+01
          0                 5           2             4    7     1      -0.9566990630E-03       4    6    1        -0.5492959765E-01      0.1332343622E+00
          0                 6           1             4    7     1       0.1181206960E-04       4    6    1         0.6971443891E-03      0.1690860064E-02

    ------------------------------------------------
       NWT REQUIRED            6 OUTER ITERATIONS 
       AND A TOTAL OF         11 INNER ITERATIONS.
    ------------------------------------------------

 NO OUTPUT CONTROL FOR STRESS PERIOD    6   TIME STEP   25
 
 SOLVING FOR HEAD 
                                                   Max.-Head-Change                         Max.-Flux-Residual
  Residual-Control   Outer-Iter.   Inner-Iter.     Column Row Layer    Maximum-Head-Change  Column Row Layer    Maximum-Flux-Residual          L2-NORM 
          0                 1           2             2    2     1       0.6408322162E-02       2    2    1         0.3340893679E+00      0.7917421132E+00
          0                 2           2             2    2     1      -0.6233563521E-03       2    2    1        -0.3340902649E-01      0.7839347694E-01
          0                 3           2             4    7     1      -0.2308963995E-01       4    8    1        -0.1240112836E+01      0.3050988820E+01
          0                 4           2             4    7     1       0.2403567018E-01       4    8    1         0.1326981734E+01      0.3250424539E+01
          0                 5           2             4    7     1      -0.9567934220E-03       4    6    1        -0.5494444617E-01      0.1332511656E+00
          0                 6           1             4    7     1       0.1181323411E-04       4    6    1         0.6973353074E-03      0.1691068914E-02

    ------------------------------------------------
       NWT REQUIRED            6 OUTER ITERATIONS 
       AND A TOTAL OF         11 INNER ITERATIONS.
    ------------------------------------------------

 NO OUTPUT CONTROL FOR STRESS PERIOD    6   TIME STEP   26
 
 SOLVING FOR HEAD 
                                                   Max.-Head-Change                         Max.-Flux-Residual
  Residual-Control   Outer-Iter.   Inner-Iter.     Column Row Layer    Maximum-Head-Change  Column Row Layer    Maximum-Flux-Residual          L2-NORM 
          0                 1           2             2    2     1       0.6377702436E-02       2    2    1         0.3324808565E+00      0.7824943305E+00
          0                 2           2             2    2     1      -0.6203778689E-03       2    2    1        -0.3324817411E-01      0.7749808492E-01
          0                 3           2             4    7     1      -0.2309175119E-01       4    8    1        -0.1240226303E+01      0.3051265261E+01
          0                 4           2             4    7     1       0.2403789129E-01       4    8    1         0.1327104237E+01      0.3250728313E+01
          0                 5           2             4    7     1      -0.9568840267E-03       4    6    1        -0.5495912584E-01      0.1332674875E+00
          0                 6           1             4    7     1       0.1181435181E-04       4    6    1         0.6975241263E-03      0.1691285651E-02

    ------------------------------------------------
       NWT REQUIRED            6 OUTER ITERATIONS 
       AND A TOTAL OF         11 INNER ITERATIONS.
    ------------------------------------------------

 NO OUTPUT CONTROL FOR STRESS PERIOD    6   TIME STEP   27
 
 SOLVING FOR HEAD 
                                                   Max.-Head-Change                         Max.-Flux-Residual
  Residual-Control   Outer-Iter.   Inner-Iter.     Column Row Layer    Maximum-Head-Change  Column Row Layer    Maximum-Flux-Residual          L2-NORM 
          0                 1           2             2    2     1       0.6347566810E-02       2    2    1         0.3308978074E+00      0.7739927900E+00
          0                 2           2             2    2     1      -0.6174464755E-03       2    2    1        -0.3308986795E-01      0.7668009814E-01
          0                 3           2             4    7     1      -0.2309377359E-01       4    8    1        -0.1240335004E+01      0.3051528994E+01
          0                 4           2             4    7     1       0.2404001998E-01       4    8    1         0.1327221639E+01      0.3251019604E+01
          0                 5           2             4    7     1      -0.9569709613E-03       4    6    1        -0.5497363451E-01      0.1332832922E+00
          0                 6           1             4    7     1       0.1181542492E-04       4    6    1         0.6977107619E-03      0.1691495663E-02

    ------------------------------------------------
       NWT REQUIRED            6 OUTER ITERATIONS 
       AND A TOTAL OF         11 INNER ITERATIONS.
    ------------------------------------------------

 NO OUTPUT CONTROL FOR STRESS PERIOD    6   TIME STEP   28
 
 SOLVING FOR HEAD 
                                                   Max.-Head-Change                         Max.-Flux-Residual
  Residual-Control   Outer-Iter.   Inner-Iter.     Column Row Layer    Maximum-Head-Change  Column Row Layer    Maximum-Flux-Residual          L2-NORM 
          0                 1           2             2    2     1       0.6317734599E-02       2    2    1         0.3293307551E+00      0.7661387124E+00
          0                 2           2             2    2     1      -0.6145451347E-03       2    2    1        -0.3293316148E-01      0.7592458532E-01
          0                 3           2             4    7     1      -0.2309571423E-01       4    8    1        -0.1240439417E+01      0.3051782998E+01
          0                 4           2             4    7     1       0.2404206540E-01       4    8    1         0.1327334449E+01      0.3251299690E+01
          0                 5           2             4    7     1      -0.9570545919E-03       4    6    1        -0.5498800110E-01      0.1332986778E+00
          0                 6           1             4    7     1       0.1181645703E-04       4    6    1         0.6978956317E-03      0.1691693082E-02

    ------------------------------------------------
       NWT REQUIRED            6 OUTER ITERATIONS 
       AND A TOTAL OF         11 INNER ITERATIONS.
    ------------------------------------------------

 NO OUTPUT CONTROL FOR STRESS PERIOD    6   TIME STEP   29
 
 SOLVING FOR HEAD 
                                                   Max.-Head-Change                         Max.-Flux-Residual
  Residual-Control   Outer-Iter.   Inner-Iter.     Column Row Layer    Maximum-Head-Change  Column Row Layer    Maximum-Flux-Residual          L2-NORM 
          0                 1           2             2    2     1       0.5802095051E-02       2    2    1         0.3023676703E+00      0.6376440957E+00
          0                 2           2             2    2     1      -0.5643755043E-03       2    2    1        -0.3023683676E-01      0.6358627082E-01
          0                 3           2             4    7     1      -0.2309757924E-01       4    8    1        -0.1240539570E+01      0.3052002956E+01
          0                 4           2             4    7     1       0.2404403009E-01       4    8    1         0.1327442788E+01      0.3251568811E+01
          0                 5           2             4    7     1      -0.9571350215E-03       4    6    1        -0.5500223800E-01      0.1333136193E+00
          0                 6           1             4    7     1       0.1181744950E-04       4    6    1         0.6980788712E-03      0.1691888683E-02

    ------------------------------------------------
       NWT REQUIRED            6 OUTER ITERATIONS 
       AND A TOTAL OF         11 INNER ITERATIONS.
    ------------------------------------------------

 NO OUTPUT CONTROL FOR STRESS PERIOD    6   TIME STEP   30



 STREAM LISTING     PERIOD      6   STEP       30

 LAYER ROW COL. STREAM  RCH.  FLOW INTO     FLOW TO   FLOW OUT OF   OVRLND.     DIRECT     STREAM       STREAM     STREAM     STREAM   STREAMBED  STREAMBED
                SEG.NO.  NO.  STRM. RCH.    AQUIFER    STRM. RCH.    RUNOFF     PRECIP       ET          HEAD       DEPTH      WIDTH   CONDCTNC.   GRADIENT

   1    1    1     1     1    6.9266E+01  4.0352E-01   6.8863E+01  0.000E+00  0.000E+00  0.000E+00  1.09468E+03  1.634E+00  1.935E+01  8.707E-02  1.545E+00
   1    2    2     1     2    6.8863E+01  6.2503E-01   6.8238E+01  0.000E+00  0.000E+00  0.000E+00  1.08969E+03  1.628E+00  1.929E+01  1.350E-01  1.543E+00
   1    3    3     1     3    6.8238E+01  5.3316E-01   6.7704E+01  0.000E+00  0.000E+00  0.000E+00  1.08404E+03  1.622E+00  1.923E+01  1.154E-01  1.541E+00
   1    3    4     1     4    6.7704E+01  4.9106E-01   6.7213E+01  0.000E+00  0.000E+00  0.000E+00  1.07902E+03  1.616E+00  1.917E+01  1.064E-01  1.539E+00
   1    4    5     2     1    6.5213E+01  4.0112E-01   6.4812E+01  0.000E+00  0.000E+00  0.000E+00  1.07408E+03  2.143E+00  1.200E+01  7.800E-02  1.714E+00
   1    5    6     2     2    6.4812E+01  3.0814E-01   6.4504E+01  0.000E+00  0.000E+00  0.000E+00  1.06865E+03  2.136E+00  1.200E+01  6.000E-02  1.712E+00
   1    6    6     2     3    6.4504E+01  3.0777E-01   6.4196E+01  0.000E+00  0.000E+00  0.000E+00  1.06392E+03  2.129E+00  1.200E+01  6.000E-02  1.710E+00
   1    7    6     2     4    6.4196E+01  3.0740E-01   6.3889E+01  0.000E+00  0.000E+00  0.000E+00  1.05920E+03  2.123E+00  1.200E+01  6.000E-02  1.708E+00
   1    8    6     2     5    6.3889E+01  3.0704E-01   6.3582E+01  0.000E+00  0.000E+00  0.000E+00  1.05448E+03  2.117E+00  1.200E+01  6.000E-02  1.706E+00
   1    3    5     3     1    2.0000E+00  2.8252E-01   1.7175E+00  0.000E+00  0.000E+00  0.000E+00  1.07555E+03  1.909E+00  9.636E+00  7.227E-02  1.955E+00
   1    3    6     3     2    1.7175E+00  2.4905E-01   1.4684E+00  0.000E+00  0.000E+00  0.000E+00  1.07264E+03  1.727E+00  8.909E+00  6.682E-02  1.864E+00
   1    3    7     3     3    1.4684E+00  1.9718E-01   1.2712E+00  0.000E+00  0.000E+00  0.000E+00  1.06987E+03  1.555E+00  8.218E+00  5.547E-02  1.777E+00
   1    4    8     3     4    1.2712E+00  2.2567E-01   1.0456E+00  0.000E+00  0.000E+00  0.000E+00  1.06682E+03  1.364E+00  7.455E+00  6.709E-02  1.682E+00
   1    5    8     3     5    1.0456E+00  1.5790E-01   8.8768E-01  0.000E+00  0.000E+00  0.000E+00  1.06362E+03  1.164E+00  6.655E+00  4.991E-02  1.582E+00
   1    6    8     3     6    8.8768E-01  5.5980E-02   8.3170E-01  0.000E+00  0.000E+00  0.000E+00  1.06158E+03  1.036E+00  6.145E+00  1.844E-02  1.518E+00
   1    5   10     4     1    1.0000E+01  9.0919E-02   9.9091E+00  0.000E+00  0.000E+00  0.000E+00  1.07836E+03  6.368E-01  1.000E+01  2.500E-02  1.212E+00
   1    5    9     4     2    9.9091E+00  1.8158E-01   9.7275E+00  0.000E+00  0.000E+00  0.000E+00  1.07154E+03  6.315E-01  1.000E+01  5.000E-02  1.211E+00
   1    6    8     4     3    9.7275E+00  1.2689E-01   9.6006E+00  0.000E+00  0.000E+00  0.000E+00  1.06381E+03  6.256E-01  1.000E+01  3.500E-02  1.209E+00
   1    6    8     5     1    1.0432E+01  2.2686E-01   1.0205E+01  0.000E+00  0.000E+00  0.000E+00  1.05868E+03  6.790E-01  1.542E+01  6.166E-02  1.226E+00
   1    7    7     5     2    1.0205E+01  2.7894E-01   9.9265E+00  0.000E+00  0.000E+00  0.000E+00  1.05417E+03  6.732E-01  1.519E+01  7.594E-02  1.224E+00
   1    8    7     5     3    9.9265E+00  1.9221E-01   9.7343E+00  0.000E+00  0.000E+00  0.000E+00  1.04992E+03  6.676E-01  1.497E+01  5.241E-02  1.223E+00
   1    8    6     5     4    9.7343E+00  1.3577E-01   9.5985E+00  0.000E+00  0.000E+00  0.000E+00  1.04691E+03  6.637E-01  1.482E+01  3.706E-02  1.221E+00
   1    9    6     6     1    6.5737E+01  3.1067E-01   6.5426E+01  0.000E+00  0.000E+00  0.000E+00  1.04491E+03  2.178E+00  1.200E+01  6.000E-02  1.726E+00
   1   10    7     6     2    6.5426E+01  3.1030E-01   6.5116E+01  0.000E+00  0.000E+00  0.000E+00  1.04035E+03  2.172E+00  1.200E+01  6.000E-02  1.724E+00
   1   11    7     6     3    6.5116E+01  3.0993E-01   6.4806E+01  0.000E+00  0.000E+00  0.000E+00  1.03580E+03  2.166E+00  1.200E+01  6.000E-02  1.722E+00
   1   12    7     6     4    6.4806E+01  3.0956E-01   6.4496E+01  0.000E+00  0.000E+00  0.000E+00  1.03125E+03  2.159E+00  1.200E+01  6.000E-02  1.720E+00
   1   13    7     6     5    6.4496E+01  2.1848E-02   6.4475E+01  0.000E+00  0.000E+00  0.000E+00  1.02807E+03  2.156E+00  1.200E+01  2.400E-02  3.035E-01
   1   14    9     7     1    1.5000E+02  1.3359E+00   1.4866E+02  0.000E+00  0.000E+00  0.000E+00  1.03987E+03  2.288E+00  5.529E+01  5.593E-01  7.962E-01
   1   13    8     7     2    1.4866E+02  1.8214E+00   1.4684E+02  0.000E+00  0.000E+00  0.000E+00  1.03478E+03  2.279E+00  5.526E+01  6.148E-01  9.876E-01
   1   13    7     7     3    1.4684E+02  1.4159E+00   1.4543E+02  0.000E+00  0.000E+00  0.000E+00  1.02969E+03  2.271E+00  5.522E+01  5.585E-01  8.451E-01
   1   13    6     8     1    2.0990E+02  1.0201E+00   2.0888E+02  0.000E+00  0.000E+00  0.000E+00  1.02507E+03  3.192E+00  4.629E+01  4.717E-01  7.209E-01
   1   13    5     8     2    2.0888E+02  2.0839E-01   2.0867E+02  0.000E+00  0.000E+00  0.000E+00  1.01881E+03  3.189E+00  4.624E+01  4.712E-01  1.474E-01
   1   13    4     8     3    2.0867E+02 -2.3785E+00   2.1105E+02  0.000E+00  0.000E+00  0.000E+00  1.01257E+03  3.195E+00  4.633E+01  4.721E+00 -1.679E-01
   1   13    3     8     4    2.1105E+02 -3.5451E+00   2.1460E+02  0.000E+00  0.000E+00  0.000E+00  1.00634E+03  3.212E+00  4.657E+01  4.746E+00 -2.490E-01
   1   13    2     8     5    2.1460E+02 -2.5508E+00   2.1715E+02  0.000E+00  0.000E+00  0.000E+00  1.00010E+03  3.229E+00  4.682E+01  4.771E+00 -1.782E-01
   1   13    1     8     6    2.1715E+02 -1.9195E+00   2.1907E+02  0.000E+00  0.000E+00  0.000E+00  9.95116E+02  3.241E+00  4.700E+01  2.874E+00 -2.227E-01
   1    8    6     9     1    7.4436E+00  0.0000E+00   7.4436E+00  0.000E+00  0.000E+00  0.000E+00  1.08065E+03  1.898E+00  4.000E+00  0.000E+00  1.633E+00
   1    8    5     9     2    7.4436E+00  0.0000E+00   7.4436E+00  0.000E+00  0.000E+00  0.000E+00  1.08015E+03  1.898E+00  4.000E+00  0.000E+00  1.633E+00





UNSATURATED ZONE PACKAGE VOLUMETRIC BUDGET FOR  TIME STEP    30 STRESS PERIOD    6
  ------------------------------------------------------------------------------



     CUMULATIVE VOLUMES      L**3       RATES FOR THIS TIME STEP      L**3/T
     ------------------                 ------------------------

           IN:                                      IN:
           ---                                      ---
        INFILTRATION =    40878625.2028          INFILTRATION =           8.2912

          OUT:                                     OUT:
          ----                                     ----
              UZF ET =    40493065.3582                UZF ET =           8.3175
        UZF RECHARGE =       73224.0000          UZF RECHARGE =       0.0000E+00

            IN - OUT =      312335.8447              IN - OUT =      -2.6291E-02

          STORAGE:                                 STORAGE:
          --------                                 --------
      STORAGE CHANGE =      312334.8169        STORAGE CHANGE =      -2.6291E-02

 PERCENT DISCREPANCY IS DIFFERENCE BETWEEN IN-OUT MINUS CHANGE IN STORAGE
 DIVIDED BY THE AVERAGE OF IN AND OUT TIMES 100

 PERCENT DISCREPANCY =           0.00     PERCENT DISCREPANCY =          -0.00






1
  VOLUMETRIC BUDGET FOR AGRICULTURAL FIELDS AT  END OF TIME STEP   30, STRESS PERIOD   6
  ------------------------------------------------------------------------------

     CUMULATIVE VOLUMES      L**3       RATES FOR THIS TIME STEP      L**3/T
     ------------------                 ------------------------

           IN:                                      IN:
           ---                                      ---
               AG WELLS  =           1.3377                 AG WELLS  =           0.0000
      DIVERSION SEGMENTS =    29660182.0000        DIVERSION SEGMENTS =           7.4436
       IRRIGATION PONDS  =           0.0000         IRRIGATION PONDS  =           0.0000
           GW IRRIGATION =           0.0000             GW IRRIGATION =           0.0000
           SW IRRIGATION =           0.0000             SW IRRIGATION =           0.0000
        SYSTEM LOSSES GW =           0.0000          SYSTEM LOSSES GW =           0.0000
        SYSTEM LOSSES SW =           0.0000          SYSTEM LOSSES SW =           0.0000

                TOTAL IN =    29660184.0000                  TOTAL IN =           7.4436

          OUT:                                     OUT:
          ----                                     ----
               AG WELLS  =           0.0000                 AG WELLS  =           0.0000
      DIVERSION SEGMENTS =           0.0000        DIVERSION SEGMENTS =           0.0000
       IRRIGATION PONDS  =           0.0000         IRRIGATION PONDS  =           0.0000
           GW IRRIGATION =           1.3377             GW IRRIGATION =           0.0000
           SW IRRIGATION =    29660780.0000             SW IRRIGATION =           7.4437
        SYSTEM LOSSES GW =           0.0000          SYSTEM LOSSES GW =           0.0000
        SYSTEM LOSSES SW =           0.0000          SYSTEM LOSSES SW =           0.0000

               TOTAL OUT =    29660782.0000                 TOTAL OUT =           7.4437

                IN - OUT =        -598.0000                  IN - OUT =      -1.4877E-04

     PERCENT DISCREPANCY =          -0.00         PERCENT DISCREPANCY =          -0.00



1
  VOLUMETRIC BUDGET FOR ENTIRE MODEL AT END OF TIME STEP   30, STRESS PERIOD   6
  ------------------------------------------------------------------------------

     CUMULATIVE VOLUMES      L**3       RATES FOR THIS TIME STEP      L**3/T
     ------------------                 ------------------------

           IN:                                      IN:
           ---                                      ---
             STORAGE     =     9404907.0000               STORAGE     =           0.5014
       CONSTANT HEAD     =           0.0000         CONSTANT HEAD     =           0.0000
     HEAD DEP BOUNDS     =     3781789.2500       HEAD DEP BOUNDS     =           0.2858
      STREAM LEAKAGE     =   161042688.0000        STREAM LEAKAGE     =          13.1496
        UZF RECHARGE     =       73223.9531          UZF RECHARGE     =           0.0000
               GW ET     =           0.0000                 GW ET     =           0.0000
     SURFACE LEAKAGE     =           0.0000       SURFACE LEAKAGE     =           0.0000
           AG WELLS      =           0.0000             AG WELLS      =           0.0000

                TOTAL IN =   174302592.0000                  TOTAL IN =          13.9368

          OUT:                                     OUT:
          ----                                     ----
             STORAGE     =    31679976.0000               STORAGE     =           2.8550
       CONSTANT HEAD     =           0.0000         CONSTANT HEAD     =           0.0000
     HEAD DEP BOUNDS     =     3858398.5000       HEAD DEP BOUNDS     =           0.2958
      STREAM LEAKAGE     =   138005008.0000        STREAM LEAKAGE     =          10.3939
        UZF RECHARGE     =           0.0000          UZF RECHARGE     =           0.0000
               GW ET     =      762841.6875                 GW ET     =           0.3920
     SURFACE LEAKAGE     =           0.0000       SURFACE LEAKAGE     =           0.0000
           AG WELLS      =           1.3377             AG WELLS      =           0.0000

               TOTAL OUT =   174306240.0000                 TOTAL OUT =          13.9367

                IN - OUT =       -3648.0000                  IN - OUT =       6.4850E-05

     PERCENT DISCREPANCY =          -0.00         PERCENT DISCREPANCY =           0.00






         TIME SUMMARY AT END OF TIME STEP   30 IN STRESS PERIOD    6
                    SECONDS     MINUTES      HOURS       DAYS        YEARS
                    -----------------------------------------------------------
   TIME STEP LENGTH  87667.      1461.1      24.352      1.0147     2.77799E-03
 STRESS PERIOD TIME 2.63000E+06  43833.      730.56      30.440     8.33397E-02
         TOTAL TIME 1.32364E+07 2.20607E+05  3676.8      153.20     0.41944    
1
1
                            STRESS PERIOD NO.    7, LENGTH =   2630000.    
                            -----------------------------------------------

                              NUMBER OF TIME STEPS =    30

                               MULTIPLIER FOR DELT =     1.000

                            INITIAL TIME STEP SIZE =   87666.66    

 REUSING NON-PARAMETER GHB CELLS FROM LAST STRESS PERIOD

      2 GHB CELLS

 REUSING STREAM SEGMENT DATA FROM LAST STRESS PERIOD



            AREAL INFILTRATION RATE
 READING ON UNIT   19 WITH FORMAT: (FREE)              

            1           2           3           4           5           6           7           8           9          10
 ........................................................................................................................
   1   1.0000E-10  2.0000E-10   0.000       0.000       0.000       0.000       0.000       0.000       0.000       0.000    
   2   2.0000E-10  1.0000E-10  2.0000E-10   0.000       0.000      8.0000E-10  8.0000E-10  5.0000E-10   0.000       0.000    
   3    0.000      5.0000E-10  1.0000E-10  1.0000E-10  8.0000E-10  8.0000E-10  5.0000E-10  5.0000E-10   0.000       0.000    
   4   8.0000E-10  5.0000E-10  1.0000E-10  1.0000E-10  1.0000E-10  1.0000E-10  1.0000E-10  1.0000E-10  2.0000E-10   0.000    
   5   8.0000E-10  5.0000E-10  1.0000E-10  1.0000E-10  1.0000E-10  1.0000E-10  1.0000E-10  1.0000E-10  1.0000E-10  1.0000E-10
   6   8.0000E-10  5.0000E-10  5.0000E-10  2.0000E-10  2.0000E-10  1.0000E-10  1.0000E-10  1.0000E-10  1.0000E-10  5.0000E-10
   7   8.0000E-10  5.0000E-10  5.0000E-10  2.0000E-10  2.0000E-10  1.0000E-10  1.0000E-10  2.0000E-10  2.0000E-10   0.000    
   8    0.000      5.0000E-10  5.0000E-10  2.0000E-10  2.0000E-10  1.0000E-10  1.0000E-10  2.0000E-10  5.0000E-10   0.000    
   9    0.000      5.0000E-10  5.0000E-10  2.0000E-10  2.0000E-10  1.0000E-10  1.0000E-10  2.0000E-10  5.0000E-10   0.000    
  10    0.000      5.0000E-10  5.0000E-10  2.0000E-10  2.0000E-10  1.0000E-10  1.0000E-10  2.0000E-10  5.0000E-10  8.0000E-10
  11    0.000      1.0000E-10  1.0000E-10  1.0000E-10  1.0000E-10  1.0000E-10  1.0000E-10  2.0000E-10  5.0000E-10   0.000    
  12   1.0000E-10  1.0000E-10  1.0000E-10  1.0000E-10  1.0000E-10  1.0000E-10  1.0000E-10  1.0000E-10  2.0000E-10   0.000    
  13   1.0000E-10  1.0000E-10  2.0000E-10  2.0000E-10  2.0000E-10  2.0000E-10  2.0000E-10  1.0000E-10  1.0000E-10   0.000    
  14    0.000      2.0000E-10  5.0000E-10  5.0000E-10  5.0000E-10  5.0000E-10  5.0000E-10  2.0000E-10  1.0000E-10   0.000    
  15    0.000       0.000      8.0000E-10  8.0000E-10  8.0000E-10  8.0000E-10   0.000       0.000       0.000       0.000    

                  ET RATE =  1.500000E-07

 USING ET EXTINCTION DEPTH FROM PREVIOUS STRESS PERIOD. CURRENT PERIOD IS:       7

 USING EXTINCTION WATER CONTENT FROM PREVIOUS STRESS PERIOD. CURRENT PERIOD IS:       7

 USING AIR ENTRY PRESSURE FROM PREVIOUS STRESS PERIOD. CURRENT PERIOD IS:       7

 USING ROOT PRESSURE HEAD FROM PREVIOUS STRESS PERIOD. CURRENT PERIOD IS:       7

 USING ROOT ACTIVITY FROM PREVIOUS STRESS PERIOD. CURRENT PERIOD IS:       7

 PROCESSING AG STRESS PERIOD DATA

 READING AG STRESS PERIOD DATA

 READING IRRIGATION SEGMENT

 READING IRRIGATION WELL

 READING SUPPLEMENTAL WELL

 NO IRRPOND OR REUSING IRRPOND DATA FROM LAST STRESS PERIOD

 END PROCESSING AG STRESS PERIOD DATA OPTIONS
 
 SOLVING FOR HEAD 
                                                   Max.-Head-Change                         Max.-Flux-Residual
  Residual-Control   Outer-Iter.   Inner-Iter.     Column Row Layer    Maximum-Head-Change  Column Row Layer    Maximum-Flux-Residual          L2-NORM 
          0                 1           2             4   13     1      -0.1419427538E-01       4   13    1        -0.9134946805E+00      0.1474388196E+01
          0                 2           2             4    7     1      -0.4000933768E-01       5    6    1        -0.2150434656E+01      0.5277344332E+01
          0                 3           2             4    7     1       0.4162613167E-01       5    6    1         0.2298266816E+01      0.5629262776E+01
          0                 4           2             4    7     1      -0.1656532040E-02       4    6    1        -0.9470373021E-01      0.2305484504E+00
          0                 5           1             4    7     1       0.2042571220E-04       4    6    1         0.1200251638E-02      0.2923114895E-02

    ------------------------------------------------
       NWT REQUIRED            5 OUTER ITERATIONS 
       AND A TOTAL OF          9 INNER ITERATIONS.
    ------------------------------------------------

 NO OUTPUT CONTROL FOR STRESS PERIOD    7   TIME STEP    1
 
 SOLVING FOR HEAD 
                                                   Max.-Head-Change                         Max.-Flux-Residual
  Residual-Control   Outer-Iter.   Inner-Iter.     Column Row Layer    Maximum-Head-Change  Column Row Layer    Maximum-Flux-Residual          L2-NORM 
          0                 1           2             2    2     1       0.5051788889E-02       2    2    1         0.2631329990E+00      0.6203374682E+00
          0                 2           2             2    2     1      -0.4914020394E-03       2    2    1        -0.2631334883E-01      0.6190283374E-01
          0                 3           2             4    7     1      -0.2156715459E-01       4    8    1        -0.1158344347E+01      0.2849966132E+01
          0                 4           2             4    7     1       0.2138313429E-01       4    8    1         0.1180537373E+01      0.2891698507E+01
          0                 5           2             4    6     1      -0.2733146064E-03       4    6    1        -0.1575565214E-01      0.3768750920E-01
          0                 6           2             4    7     1      -0.1770549918E-03       5    6    1        -0.1004755179E-01      0.2591944996E-01
          0                 7           2             4    7     1      -0.1719523216E-02       4    6    1        -0.9757778372E-01      0.2409664674E+00
          0                 8           2             4    7     1       0.1737473441E-02       4    7    1         0.1013363048E+00      0.2483187213E+00
          0                 9           1             2   13     1      -0.6346961144E-04       4   13    1        -0.4036776985E-02      0.1112280872E-01

    ------------------------------------------------
       NWT REQUIRED            9 OUTER ITERATIONS 
       AND A TOTAL OF         17 INNER ITERATIONS.
    ------------------------------------------------

 NO OUTPUT CONTROL FOR STRESS PERIOD    7   TIME STEP    2
 
 SOLVING FOR HEAD 
                                                   Max.-Head-Change                         Max.-Flux-Residual
  Residual-Control   Outer-Iter.   Inner-Iter.     Column Row Layer    Maximum-Head-Change  Column Row Layer    Maximum-Flux-Residual          L2-NORM 
          0                 1           2             2    2     1       0.5032200877E-02       2    2    1         0.2621046696E+00      0.5720175987E+00
          0                 2           2             4    7     1      -0.4223204602E-01       5    6    1        -0.2269846093E+01      0.5581656181E+01
          0                 3           2             4    7     1      -0.1039300645E+00       4    6    1        -0.5582422344E+01      0.1375888012E+02
          0                 4           2             4    7     1       0.1367649889E+00       4    6    1         0.7548557441E+01      0.1849006283E+02
          0                 5           2             4    7     1      -0.5480292331E-02       4    7    1        -0.3110999638E+00      0.7576562690E+00
          0                 6           1             4    7     1       0.6762401595E-04       4    7    1         0.3945397622E-02      0.9620147575E-02

    ------------------------------------------------
       NWT REQUIRED            6 OUTER ITERATIONS 
       AND A TOTAL OF         11 INNER ITERATIONS.
    ------------------------------------------------

 NO OUTPUT CONTROL FOR STRESS PERIOD    7   TIME STEP    3
 
 SOLVING FOR HEAD 
                                                   Max.-Head-Change                         Max.-Flux-Residual
  Residual-Control   Outer-Iter.   Inner-Iter.     Column Row Layer    Maximum-Head-Change  Column Row Layer    Maximum-Flux-Residual          L2-NORM 
          0                 1           2             2    2     1       0.5012766955E-02       2    2    1         0.2610844987E+00      0.6159350857E+00
          0                 2           2             7   13     1      -0.4003648137E-02       7   13    1        -0.2220831893E+00      0.2285488293E+00
          0                 3           2             7   13     1       0.2725573719E-03       7   13    1         0.1554157379E-01      0.1598723900E-01
          0                 4           1             7   13     1      -0.1084066399E-04       7   13    1        -0.6353852114E-03      0.6532480407E-03

    ------------------------------------------------
       NWT REQUIRED            4 OUTER ITERATIONS 
       AND A TOTAL OF          7 INNER ITERATIONS.
    ------------------------------------------------

 NO OUTPUT CONTROL FOR STRESS PERIOD    7   TIME STEP    4
 
 SOLVING FOR HEAD 
                                                   Max.-Head-Change                         Max.-Flux-Residual
  Residual-Control   Outer-Iter.   Inner-Iter.     Column Row Layer    Maximum-Head-Change  Column Row Layer    Maximum-Flux-Residual          L2-NORM 
          0                 1           2             2    2     1       0.4993658180E-02       2    2    1         0.2600814270E+00      0.5595858664E+00
          0                 2           2             4    7     1      -0.2477117878E-01       5    6    1        -0.1333751011E+01      0.3279902016E+01
          0                 3           2             4    7     1       0.2484180454E-01       5    6    1         0.1371737419E+01      0.3359553696E+01
          0                 4           2             4    7     1      -0.4672828859E-03       4    6    1        -0.2674290703E-01      0.6525805514E-01
          0                 5           2             4    7     1      -0.3635369801E-03       4    8    1        -0.2063050087E-01      0.5143881547E-01
          0                 6           2             4    7     1      -0.2975163817E-02       4    8    1        -0.1688330120E+00      0.4164145880E+00
          0                 7           2             4    7     1       0.3255056681E-02       5    6    1         0.1898491652E+00      0.4650582435E+00
          0                 8           2             4    7     1      -0.4668968501E-02       5    8    1        -0.2798583832E+00      0.6891358654E+00
          0                 9           2             4    7     1       0.4219947068E-02       5    6    1         0.2599284777E+00      0.6367317409E+00
          0                10           2             4    7     1       0.3752704788E-03       4    8    1         0.2311587182E-01      0.5699431168E-01
          0                11           1             2   13     1      -0.6354300085E-04       4   13    1        -0.4140031671E-02      0.7926297708E-02

    ------------------------------------------------
       NWT REQUIRED           11 OUTER ITERATIONS 
       AND A TOTAL OF         21 INNER ITERATIONS.
    ------------------------------------------------

 OUTPUT CONTROL FOR STRESS PERIOD    7   TIME STEP    5
    PRINT BUDGET
    SAVE BUDGET
 UBDSV1 SAVING "         STORAGE" ON UNIT 102 AT TIME STEP 5, STRESS PERIOD 7
 UBDSV2 SAVING "   CONSTANT HEAD" ON UNIT 102 AT TIME STEP 5, STRESS PERIOD 7
 UBDSV1 SAVING "FLOW RIGHT FACE " ON UNIT 102 AT TIME STEP 5, STRESS PERIOD 7
 UBDSV1 SAVING "FLOW FRONT FACE " ON UNIT 102 AT TIME STEP 5, STRESS PERIOD 7

  HEAD DEP BOUNDS   PERIOD    7   STEP     5
 BOUNDARY      1   LAYER   1   ROW    13   COL     1   RATE   -0.295230    
 BOUNDARY      2   LAYER   1   ROW    14   COL     9   RATE    0.285764    



 STREAM LISTING     PERIOD      7   STEP        5

 LAYER ROW COL. STREAM  RCH.  FLOW INTO     FLOW TO   FLOW OUT OF   OVRLND.     DIRECT     STREAM       STREAM     STREAM     STREAM   STREAMBED  STREAMBED
                SEG.NO.  NO.  STRM. RCH.    AQUIFER    STRM. RCH.    RUNOFF     PRECIP       ET          HEAD       DEPTH      WIDTH   CONDCTNC.   GRADIENT

   1    1    1     1     1    6.2250E+01  3.7978E-01   6.1870E+01  0.000E+00  0.000E+00  0.000E+00  1.09460E+03  1.553E+00  1.854E+01  8.342E-02  1.518E+00
   1    2    2     1     2    6.1870E+01  5.8817E-01   6.1282E+01  0.000E+00  0.000E+00  0.000E+00  1.08961E+03  1.547E+00  1.848E+01  1.294E-01  1.516E+00
   1    3    3     1     3    6.1282E+01  5.0163E-01   6.0781E+01  0.000E+00  0.000E+00  0.000E+00  1.08396E+03  1.540E+00  1.841E+01  1.105E-01  1.513E+00
   1    3    4     1     4    6.0781E+01  4.6194E-01   6.0319E+01  0.000E+00  0.000E+00  0.000E+00  1.07894E+03  1.534E+00  1.836E+01  1.019E-01  1.511E+00
   1    4    5     2     1    5.8319E+01  3.9026E-01   5.7928E+01  0.000E+00  0.000E+00  0.000E+00  1.07394E+03  2.003E+00  1.200E+01  7.800E-02  1.668E+00
   1    5    6     2     2    5.7928E+01  2.9977E-01   5.7629E+01  0.000E+00  0.000E+00  0.000E+00  1.06851E+03  1.996E+00  1.200E+01  6.000E-02  1.665E+00
   1    6    6     2     3    5.7629E+01  2.9940E-01   5.7329E+01  0.000E+00  0.000E+00  0.000E+00  1.06378E+03  1.990E+00  1.200E+01  6.000E-02  1.663E+00
   1    7    6     2     4    5.7329E+01  2.9903E-01   5.7030E+01  0.000E+00  0.000E+00  0.000E+00  1.05906E+03  1.984E+00  1.200E+01  6.000E-02  1.661E+00
   1    8    6     2     5    5.7030E+01  2.9865E-01   5.6732E+01  0.000E+00  0.000E+00  0.000E+00  1.05434E+03  1.978E+00  1.200E+01  6.000E-02  1.659E+00
   1    3    5     3     1    2.0000E+00  2.8252E-01   1.7175E+00  0.000E+00  0.000E+00  0.000E+00  1.07555E+03  1.909E+00  9.636E+00  7.227E-02  1.955E+00
   1    3    6     3     2    1.7175E+00  2.4905E-01   1.4684E+00  0.000E+00  0.000E+00  0.000E+00  1.07264E+03  1.727E+00  8.909E+00  6.682E-02  1.864E+00
   1    3    7     3     3    1.4684E+00  1.9718E-01   1.2712E+00  0.000E+00  0.000E+00  0.000E+00  1.06987E+03  1.555E+00  8.218E+00  5.547E-02  1.777E+00
   1    4    8     3     4    1.2712E+00  2.2567E-01   1.0456E+00  0.000E+00  0.000E+00  0.000E+00  1.06682E+03  1.364E+00  7.455E+00  6.709E-02  1.682E+00
   1    5    8     3     5    1.0456E+00  1.5790E-01   8.8768E-01  0.000E+00  0.000E+00  0.000E+00  1.06362E+03  1.164E+00  6.655E+00  4.991E-02  1.582E+00
   1    6    8     3     6    8.8768E-01  5.5980E-02   8.3170E-01  0.000E+00  0.000E+00  0.000E+00  1.06158E+03  1.036E+00  6.145E+00  1.844E-02  1.518E+00
   1    5   10     4     1    1.0000E+01  9.0919E-02   9.9091E+00  0.000E+00  0.000E+00  0.000E+00  1.07836E+03  6.368E-01  1.000E+01  2.500E-02  1.212E+00
   1    5    9     4     2    9.9091E+00  1.8158E-01   9.7275E+00  0.000E+00  0.000E+00  0.000E+00  1.07154E+03  6.315E-01  1.000E+01  5.000E-02  1.211E+00
   1    6    8     4     3    9.7275E+00  1.2689E-01   9.6006E+00  0.000E+00  0.000E+00  0.000E+00  1.06381E+03  6.256E-01  1.000E+01  3.500E-02  1.209E+00
   1    6    8     5     1    1.0432E+01  2.2686E-01   1.0205E+01  0.000E+00  0.000E+00  0.000E+00  1.05868E+03  6.790E-01  1.542E+01  6.166E-02  1.226E+00
   1    7    7     5     2    1.0205E+01  2.7894E-01   9.9265E+00  0.000E+00  0.000E+00  0.000E+00  1.05417E+03  6.732E-01  1.519E+01  7.594E-02  1.224E+00
   1    8    7     5     3    9.9265E+00  1.9221E-01   9.7343E+00  0.000E+00  0.000E+00  0.000E+00  1.04992E+03  6.676E-01  1.497E+01  5.241E-02  1.223E+00
   1    8    6     5     4    9.7343E+00  1.3577E-01   9.5985E+00  0.000E+00  0.000E+00  0.000E+00  1.04691E+03  6.637E-01  1.482E+01  3.706E-02  1.221E+00
   1    9    6     6     1    5.3877E+01  2.9594E-01   5.3581E+01  0.000E+00  0.000E+00  0.000E+00  1.04466E+03  1.932E+00  1.200E+01  6.000E-02  1.644E+00
   1   10    7     6     2    5.3581E+01  2.9556E-01   5.3286E+01  0.000E+00  0.000E+00  0.000E+00  1.04011E+03  1.926E+00  1.200E+01  6.000E-02  1.642E+00
   1   11    7     6     3    5.3286E+01  2.9518E-01   5.2990E+01  0.000E+00  0.000E+00  0.000E+00  1.03556E+03  1.920E+00  1.200E+01  6.000E-02  1.640E+00
   1   12    7     6     4    5.2990E+01  2.9479E-01   5.2696E+01  0.000E+00  0.000E+00  0.000E+00  1.03100E+03  1.913E+00  1.200E+01  6.000E-02  1.638E+00
   1   13    7     6     5    5.2696E+01  1.5937E-02   5.2680E+01  0.000E+00  0.000E+00  0.000E+00  1.02782E+03  1.910E+00  1.200E+01  2.400E-02  2.213E-01
   1   14    9     7     1    1.5000E+02  1.3359E+00   1.4866E+02  0.000E+00  0.000E+00  0.000E+00  1.03987E+03  2.288E+00  5.529E+01  5.593E-01  7.962E-01
   1   13    8     7     2    1.4866E+02  1.8209E+00   1.4684E+02  0.000E+00  0.000E+00  0.000E+00  1.03478E+03  2.279E+00  5.526E+01  6.148E-01  9.873E-01
   1   13    7     7     3    1.4684E+02  1.4158E+00   1.4543E+02  0.000E+00  0.000E+00  0.000E+00  1.02969E+03  2.271E+00  5.522E+01  5.585E-01  8.450E-01
   1   13    6     8     1    1.9811E+02  9.6782E-01   1.9714E+02  0.000E+00  0.000E+00  0.000E+00  1.02500E+03  3.124E+00  4.529E+01  4.616E-01  6.990E-01
   1   13    5     8     2    1.9714E+02  1.7318E-01   1.9697E+02  0.000E+00  0.000E+00  0.000E+00  1.01875E+03  3.120E+00  4.524E+01  4.611E-01  1.252E-01
   1   13    4     8     3    1.9697E+02 -2.4502E+00   1.9942E+02  0.000E+00  0.000E+00  0.000E+00  1.01250E+03  3.127E+00  4.534E+01  4.621E+00 -1.768E-01
   1   13    3     8     4    1.9942E+02 -3.5857E+00   2.0300E+02  0.000E+00  0.000E+00  0.000E+00  1.00627E+03  3.145E+00  4.560E+01  4.647E+00 -2.572E-01
   1   13    2     8     5    2.0300E+02 -2.6577E+00   2.0566E+02  0.000E+00  0.000E+00  0.000E+00  1.00004E+03  3.163E+00  4.586E+01  4.674E+00 -1.896E-01
   1   13    1     8     6    2.0566E+02 -2.0210E+00   2.0768E+02  0.000E+00  0.000E+00  0.000E+00  9.95052E+02  3.177E+00  4.606E+01  2.816E+00 -2.392E-01
   1    8    6     9     1    1.2453E+01  0.0000E+00   1.2453E+01  0.000E+00  0.000E+00  0.000E+00  1.08133E+03  2.585E+00  4.000E+00  0.000E+00  1.862E+00
   1    8    5     9     2    1.2453E+01  0.0000E+00   1.2453E+01  0.000E+00  0.000E+00  0.000E+00  1.08083E+03  2.585E+00  4.000E+00  0.000E+00  1.862E+00



 UBDSV3 SAVING "           GW ET" ON UNIT  61 AT TIME STEP 5, STRESS PERIOD 7
 UBDSV3 SAVING "    UZF RECHARGE" ON UNIT  61 AT TIME STEP 5, STRESS PERIOD 7
 UBDSV3 SAVING " SURFACE LEAKAGE" ON UNIT  61 AT TIME STEP 5, STRESS PERIOD 7
 UBDSV3 SAVING "       HORT+DUNN" ON UNIT  61 AT TIME STEP 5, STRESS PERIOD 7
 UBDSV3 SAVING "  STORAGE CHANGE" ON UNIT  61 AT TIME STEP 5, STRESS PERIOD 7


UNSATURATED ZONE PACKAGE VOLUMETRIC BUDGET FOR  TIME STEP     5 STRESS PERIOD    7
  ------------------------------------------------------------------------------



     CUMULATIVE VOLUMES      L**3       RATES FOR THIS TIME STEP      L**3/T
     ------------------                 ------------------------

           IN:                                      IN:
           ---                                      ---
        INFILTRATION =    51642124.0638          INFILTRATION =          13.3008

          OUT:                                     OUT:
          ----                                     ----
              UZF ET =    50697521.1501                UZF ET =          23.0967
        UZF RECHARGE =       73224.0000          UZF RECHARGE =       0.0000E+00

            IN - OUT =      871378.9138              IN - OUT =          -9.7959

          STORAGE:                                 STORAGE:
          --------                                 --------
      STORAGE CHANGE =      871591.3637        STORAGE CHANGE =          -9.7959

 PERCENT DISCREPANCY IS DIFFERENCE BETWEEN IN-OUT MINUS CHANGE IN STORAGE
 DIVIDED BY THE AVERAGE OF IN AND OUT TIMES 100

 PERCENT DISCREPANCY =          -0.00     PERCENT DISCREPANCY =           0.00






 

            AG WELLS      PERIOD    7   STEP   5
 AG WELL      1   LAYER   1   ROW     6   COL     4   RATE   -3.148508E-02
 AG WELL      2   LAYER   1   ROW     6   COL     5   RATE   -3.148508E-02
 AG WELL      3   LAYER   1   ROW     7   COL     4   RATE   -3.148508E-02
 AG WELL      4   LAYER   1   ROW     7   COL     5   RATE   -3.148508E-02
 AG WELL      5   LAYER   1   ROW     8   COL     4   RATE   -3.148508E-02
 AG WELL      6   LAYER   1   ROW     8   COL     5   RATE   -3.148508E-02
 
 

   DIVERSION SEGMENTS     PERIOD    7   STEP   5
 SEGMENT      9   RATE     12.4530    
 
 

        SW IRRIGATION     PERIOD    7   STEP   5
 SEGMENT      9   ROW     6   COL     4   RATE     2.04406    
 SEGMENT      9   ROW     6   COL     5   RATE     2.04406    
 SEGMENT      9   ROW     7   COL     4   RATE     2.04406    
 SEGMENT      9   ROW     7   COL     5   RATE     2.04406    
 SEGMENT      9   ROW     8   COL     4   RATE     2.04406    
 SEGMENT      9   ROW     8   COL     5   RATE     2.04406    
 
 

        GW IRRIGATION     PERIOD    7   STEP   5
 AG WELL      1   ROW     6   COL     4   RATE    3.148508E-02
 AG WELL      2   ROW     6   COL     5   RATE    3.148508E-02
 AG WELL      3   ROW     7   COL     4   RATE    3.148508E-02
 AG WELL      4   ROW     7   COL     5   RATE    3.148508E-02
 AG WELL      5   ROW     8   COL     4   RATE    3.148508E-02
 AG WELL      6   ROW     8   COL     5   RATE    3.148508E-02
 
1
  VOLUMETRIC BUDGET FOR AGRICULTURAL FIELDS AT  END OF TIME STEP    5, STRESS PERIOD   7
  ------------------------------------------------------------------------------

     CUMULATIVE VOLUMES      L**3       RATES FOR THIS TIME STEP      L**3/T
     ------------------                 ------------------------

           IN:                                      IN:
           ---                                      ---
               AG WELLS  =      480208.6250                 AG WELLS  =           0.1889
      DIVERSION SEGMENTS =    39604960.0000        DIVERSION SEGMENTS =          12.4530
       IRRIGATION PONDS  =           0.0000         IRRIGATION PONDS  =           0.0000
           GW IRRIGATION =           0.0000             GW IRRIGATION =           0.0000
           SW IRRIGATION =           0.0000             SW IRRIGATION =           0.0000
        SYSTEM LOSSES GW =           0.0000          SYSTEM LOSSES GW =           0.0000
        SYSTEM LOSSES SW =           0.0000          SYSTEM LOSSES SW =           0.0000

                TOTAL IN =    40085168.0000                  TOTAL IN =          12.6419

          OUT:                                     OUT:
          ----                                     ----
               AG WELLS  =           0.0000                 AG WELLS  =           0.0000
      DIVERSION SEGMENTS =           0.0000        DIVERSION SEGMENTS =           0.0000
       IRRIGATION PONDS  =           0.0000         IRRIGATION PONDS  =           0.0000
           GW IRRIGATION =      480208.6250             GW IRRIGATION =           0.1889
           SW IRRIGATION =    39605752.0000             SW IRRIGATION =          12.4533
        SYSTEM LOSSES GW =           0.0000          SYSTEM LOSSES GW =           0.0000
        SYSTEM LOSSES SW =           0.0000          SYSTEM LOSSES SW =           0.0000

               TOTAL OUT =    40085960.0000                 TOTAL OUT =          12.6422

                IN - OUT =        -792.0000                  IN - OUT =      -2.4796E-04

     PERCENT DISCREPANCY =          -0.00         PERCENT DISCREPANCY =          -0.00



1
  VOLUMETRIC BUDGET FOR ENTIRE MODEL AT END OF TIME STEP    5, STRESS PERIOD   7
  ------------------------------------------------------------------------------

     CUMULATIVE VOLUMES      L**3       RATES FOR THIS TIME STEP      L**3/T
     ------------------                 ------------------------

           IN:                                      IN:
           ---                                      ---
             STORAGE     =    10756955.0000               STORAGE     =           0.8549
       CONSTANT HEAD     =           0.0000         CONSTANT HEAD     =           0.0000
     HEAD DEP BOUNDS     =     3907049.2500       HEAD DEP BOUNDS     =           0.2858
      STREAM LEAKAGE     =   166600064.0000        STREAM LEAKAGE     =          12.8310
        UZF RECHARGE     =       73223.9531          UZF RECHARGE     =           0.0000
               GW ET     =           0.0000                 GW ET     =           0.0000
     SURFACE LEAKAGE     =           0.0000       SURFACE LEAKAGE     =           0.0000
           AG WELLS      =           0.0000             AG WELLS      =           0.0000

                TOTAL IN =   181337280.0000                  TOTAL IN =          13.9717

          OUT:                                     OUT:
          ----                                     ----
             STORAGE     =    32716520.0000               STORAGE     =           2.2204
       CONSTANT HEAD     =           0.0000         CONSTANT HEAD     =           0.0000
     HEAD DEP BOUNDS     =     3987869.0000       HEAD DEP BOUNDS     =           0.2952
      STREAM LEAKAGE     =   143087440.0000        STREAM LEAKAGE     =          10.7147
        UZF RECHARGE     =           0.0000          UZF RECHARGE     =           0.0000
               GW ET     =     1068798.3750                 GW ET     =           0.5529
     SURFACE LEAKAGE     =           0.0000       SURFACE LEAKAGE     =           0.0000
           AG WELLS      =      480208.6250             AG WELLS      =           0.1889

               TOTAL OUT =   181340832.0000                 TOTAL OUT =          13.9722

                IN - OUT =       -3552.0000                  IN - OUT =      -5.3692E-04

     PERCENT DISCREPANCY =          -0.00         PERCENT DISCREPANCY =          -0.00






         TIME SUMMARY AT END OF TIME STEP    5 IN STRESS PERIOD    7
                    SECONDS     MINUTES      HOURS       DAYS        YEARS
                    -----------------------------------------------------------
   TIME STEP LENGTH  87667.      1461.1      24.352      1.0147     2.77799E-03
 STRESS PERIOD TIME 4.38333E+05  7305.6      121.76      5.0733     1.38899E-02
         TOTAL TIME 1.36747E+07 2.27912E+05  3798.5      158.27     0.43333    
1
 
 SOLVING FOR HEAD 
                                                   Max.-Head-Change                         Max.-Flux-Residual
  Residual-Control   Outer-Iter.   Inner-Iter.     Column Row Layer    Maximum-Head-Change  Column Row Layer    Maximum-Flux-Residual          L2-NORM 
          0                 1           2             2    2     1       0.4974695672E-02       2    2    1         0.2590860995E+00      0.5689240303E+00
          0                 2           2             4    7     1      -0.3111685313E-01       5    6    1        -0.1674462958E+01      0.4118553250E+01
          0                 3           2             4    7     1      -0.4697839568E-02       4   13    1        -0.2530954276E+00      0.7587489330E+00
          0                 4           2             4    7     1       0.3724780141E-01       4    6    1         0.2056444716E+01      0.5037221082E+01
          0                 5           2             4    7     1      -0.1482558558E-02       4    6    1        -0.8442509261E-01      0.2061917985E+00
          0                 6           1             4    7     1       0.1829412441E-04       4    6    1         0.1070616713E-02      0.2615511225E-02

    ------------------------------------------------
       NWT REQUIRED            6 OUTER ITERATIONS 
       AND A TOTAL OF         11 INNER ITERATIONS.
    ------------------------------------------------

 NO OUTPUT CONTROL FOR STRESS PERIOD    7   TIME STEP    6
 
 SOLVING FOR HEAD 
                                                   Max.-Head-Change                         Max.-Flux-Residual
  Residual-Control   Outer-Iter.   Inner-Iter.     Column Row Layer    Maximum-Head-Change  Column Row Layer    Maximum-Flux-Residual          L2-NORM 
          0                 1           2             2    2     1       0.4955963539E-02       2    2    1         0.2581029131E+00      0.6127494848E+00
          0                 2           2             2    2     1      -0.4820808031E-03       2    2    1        -0.2581033739E-01      0.6079198305E-01
          0                 3           2             4    7     1      -0.6970714314E-01       4    7    1        -0.3743811239E+01      0.9210710131E+01
          0                 4           2             4    7     1       0.7259999131E-01       4    8    1         0.4006044827E+01      0.9812070137E+01
          0                 5           2             4    7     1      -0.2927291922E-02       4    7    1        -0.1662420936E+00      0.4025644905E+00
          0                 6           1             4    7     1       0.3612141683E-04       4    7    1         0.2108354398E-02      0.5105683793E-02

    ------------------------------------------------
       NWT REQUIRED            6 OUTER ITERATIONS 
       AND A TOTAL OF         11 INNER ITERATIONS.
    ------------------------------------------------

 NO OUTPUT CONTROL FOR STRESS PERIOD    7   TIME STEP    7
 
 SOLVING FOR HEAD 
                                                   Max.-Head-Change                         Max.-Flux-Residual
  Residual-Control   Outer-Iter.   Inner-Iter.     Column Row Layer    Maximum-Head-Change  Column Row Layer    Maximum-Flux-Residual          L2-NORM 
          0                 1           2             2    2     1       0.4937458101E-02       4   13    1         0.2703950681E+00      0.6554394378E+00
          0                 2           2             2    2     1      -0.4802807213E-03       4   13    1        -0.2677694654E-01      0.6486922645E-01
          0                 3           2             4    7     1      -0.6970717410E-01       4    7    1        -0.3743812663E+01      0.9210790369E+01
          0                 4           2             4    7     1       0.7260038538E-01       4    8    1         0.4006049799E+01      0.9812099179E+01
          0                 5           2             4    7     1      -0.2927608591E-02       4    7    1        -0.1662607073E+00      0.4025823673E+00
          0                 6           1             4    7     1       0.3612532417E-04       4    7    1         0.2108590450E-02      0.5105912352E-02

    ------------------------------------------------
       NWT REQUIRED            6 OUTER ITERATIONS 
       AND A TOTAL OF         11 INNER ITERATIONS.
    ------------------------------------------------

 NO OUTPUT CONTROL FOR STRESS PERIOD    7   TIME STEP    8
 
 SOLVING FOR HEAD 
                                                   Max.-Head-Change                         Max.-Flux-Residual
  Residual-Control   Outer-Iter.   Inner-Iter.     Column Row Layer    Maximum-Head-Change  Column Row Layer    Maximum-Flux-Residual          L2-NORM 
          0                 1           2             2    2     1       0.4919176098E-02       4   13    1         0.3147923104E+00      0.6960381396E+00
          0                 2           2             2    2     1      -0.4785023728E-03       4   13    1        -0.3117933136E-01      0.6875881621E-01
          0                 3           2             4    7     1      -0.6970720202E-01       4    7    1        -0.3743813945E+01      0.9210861940E+01
          0                 4           2             4    7     1       0.7260077114E-01       4    8    1         0.4006054264E+01      0.9812126750E+01
          0                 5           2             4    7     1      -0.2927925558E-02       4    7    1        -0.1662793466E+00      0.4026000232E+00
          0                 6           1             4    7     1       0.3612923532E-04       4    7    1         0.2108826829E-02      0.5106135396E-02

    ------------------------------------------------
       NWT REQUIRED            6 OUTER ITERATIONS 
       AND A TOTAL OF         11 INNER ITERATIONS.
    ------------------------------------------------

 NO OUTPUT CONTROL FOR STRESS PERIOD    7   TIME STEP    9
 
 SOLVING FOR HEAD 
                                                   Max.-Head-Change                         Max.-Flux-Residual
  Residual-Control   Outer-Iter.   Inner-Iter.     Column Row Layer    Maximum-Head-Change  Column Row Layer    Maximum-Flux-Residual          L2-NORM 
          0                 1           2             4   13     1       0.5438879948E-02       4   13    1         0.3506470258E+00      0.7327279055E+00
          0                 2           2             4   13     1      -0.5240060810E-03       4   13    1        -0.3473419817E-01      0.7227917365E-01
          0                 3           2             4    7     1      -0.6970724071E-01       4    7    1        -0.3743815814E+01      0.9210928508E+01
          0                 4           2             4    7     1       0.7256157017E-01       4    7    1         0.4006052990E+01      0.9812147318E+01
          0                 5           2             4    7     1      -0.2888144691E-02       4    6    1        -0.1642473272E+00      0.4016112334E+00
          0                 6           1             4    7     1       0.3563837280E-04       4    6    1         0.2083057301E-02      0.5093450521E-02

    ------------------------------------------------
       NWT REQUIRED            6 OUTER ITERATIONS 
       AND A TOTAL OF         11 INNER ITERATIONS.
    ------------------------------------------------

 OUTPUT CONTROL FOR STRESS PERIOD    7   TIME STEP   10
    PRINT BUDGET
    SAVE BUDGET
 UBDSV1 SAVING "         STORAGE" ON UNIT 102 AT TIME STEP 10, STRESS PERIOD 7
 UBDSV2 SAVING "   CONSTANT HEAD" ON UNIT 102 AT TIME STEP 10, STRESS PERIOD 7
 UBDSV1 SAVING "FLOW RIGHT FACE " ON UNIT 102 AT TIME STEP 10, STRESS PERIOD 7
 UBDSV1 SAVING "FLOW FRONT FACE " ON UNIT 102 AT TIME STEP 10, STRESS PERIOD 7

  HEAD DEP BOUNDS   PERIOD    7   STEP    10
 BOUNDARY      1   LAYER   1   ROW    13   COL     1   RATE   -0.294734    
 BOUNDARY      2   LAYER   1   ROW    14   COL     9   RATE    0.285765    



 STREAM LISTING     PERIOD      7   STEP       10

 LAYER ROW COL. STREAM  RCH.  FLOW INTO     FLOW TO   FLOW OUT OF   OVRLND.     DIRECT     STREAM       STREAM     STREAM     STREAM   STREAMBED  STREAMBED
                SEG.NO.  NO.  STRM. RCH.    AQUIFER    STRM. RCH.    RUNOFF     PRECIP       ET          HEAD       DEPTH      WIDTH   CONDCTNC.   GRADIENT

   1    1    1     1     1    6.2250E+01  3.7978E-01   6.1870E+01  0.000E+00  0.000E+00  0.000E+00  1.09460E+03  1.553E+00  1.854E+01  8.342E-02  1.518E+00
   1    2    2     1     2    6.1870E+01  5.8817E-01   6.1282E+01  0.000E+00  0.000E+00  0.000E+00  1.08961E+03  1.547E+00  1.848E+01  1.294E-01  1.516E+00
   1    3    3     1     3    6.1282E+01  5.0163E-01   6.0781E+01  0.000E+00  0.000E+00  0.000E+00  1.08396E+03  1.540E+00  1.841E+01  1.105E-01  1.513E+00
   1    3    4     1     4    6.0781E+01  4.6194E-01   6.0319E+01  0.000E+00  0.000E+00  0.000E+00  1.07894E+03  1.534E+00  1.836E+01  1.019E-01  1.511E+00
   1    4    5     2     1    5.8319E+01  3.9026E-01   5.7928E+01  0.000E+00  0.000E+00  0.000E+00  1.07394E+03  2.003E+00  1.200E+01  7.800E-02  1.668E+00
   1    5    6     2     2    5.7928E+01  2.9977E-01   5.7629E+01  0.000E+00  0.000E+00  0.000E+00  1.06851E+03  1.996E+00  1.200E+01  6.000E-02  1.665E+00
   1    6    6     2     3    5.7629E+01  2.9940E-01   5.7329E+01  0.000E+00  0.000E+00  0.000E+00  1.06378E+03  1.990E+00  1.200E+01  6.000E-02  1.663E+00
   1    7    6     2     4    5.7329E+01  2.9903E-01   5.7030E+01  0.000E+00  0.000E+00  0.000E+00  1.05906E+03  1.984E+00  1.200E+01  6.000E-02  1.661E+00
   1    8    6     2     5    5.7030E+01  2.9865E-01   5.6732E+01  0.000E+00  0.000E+00  0.000E+00  1.05434E+03  1.978E+00  1.200E+01  6.000E-02  1.659E+00
   1    3    5     3     1    2.0000E+00  2.8252E-01   1.7175E+00  0.000E+00  0.000E+00  0.000E+00  1.07555E+03  1.909E+00  9.636E+00  7.227E-02  1.955E+00
   1    3    6     3     2    1.7175E+00  2.4905E-01   1.4684E+00  0.000E+00  0.000E+00  0.000E+00  1.07264E+03  1.727E+00  8.909E+00  6.682E-02  1.864E+00
   1    3    7     3     3    1.4684E+00  1.9718E-01   1.2712E+00  0.000E+00  0.000E+00  0.000E+00  1.06987E+03  1.555E+00  8.218E+00  5.547E-02  1.777E+00
   1    4    8     3     4    1.2712E+00  2.2567E-01   1.0456E+00  0.000E+00  0.000E+00  0.000E+00  1.06682E+03  1.364E+00  7.455E+00  6.709E-02  1.682E+00
   1    5    8     3     5    1.0456E+00  1.5790E-01   8.8768E-01  0.000E+00  0.000E+00  0.000E+00  1.06362E+03  1.164E+00  6.655E+00  4.991E-02  1.582E+00
   1    6    8     3     6    8.8768E-01  5.5980E-02   8.3170E-01  0.000E+00  0.000E+00  0.000E+00  1.06158E+03  1.036E+00  6.145E+00  1.844E-02  1.518E+00
   1    5   10     4     1    1.0000E+01  9.0919E-02   9.9091E+00  0.000E+00  0.000E+00  0.000E+00  1.07836E+03  6.368E-01  1.000E+01  2.500E-02  1.212E+00
   1    5    9     4     2    9.9091E+00  1.8158E-01   9.7275E+00  0.000E+00  0.000E+00  0.000E+00  1.07154E+03  6.315E-01  1.000E+01  5.000E-02  1.211E+00
   1    6    8     4     3    9.7275E+00  1.2689E-01   9.6006E+00  0.000E+00  0.000E+00  0.000E+00  1.06381E+03  6.256E-01  1.000E+01  3.500E-02  1.209E+00
   1    6    8     5     1    1.0432E+01  2.2686E-01   1.0205E+01  0.000E+00  0.000E+00  0.000E+00  1.05868E+03  6.790E-01  1.542E+01  6.166E-02  1.226E+00
   1    7    7     5     2    1.0205E+01  2.7894E-01   9.9265E+00  0.000E+00  0.000E+00  0.000E+00  1.05417E+03  6.732E-01  1.519E+01  7.594E-02  1.224E+00
   1    8    7     5     3    9.9265E+00  1.9221E-01   9.7343E+00  0.000E+00  0.000E+00  0.000E+00  1.04992E+03  6.676E-01  1.497E+01  5.241E-02  1.223E+00
   1    8    6     5     4    9.7343E+00  1.3577E-01   9.5985E+00  0.000E+00  0.000E+00  0.000E+00  1.04691E+03  6.637E-01  1.482E+01  3.706E-02  1.221E+00
   1    9    6     6     1    4.3866E+01  2.8246E-01   4.3584E+01  0.000E+00  0.000E+00  0.000E+00  1.04443E+03  1.708E+00  1.200E+01  6.000E-02  1.569E+00
   1   10    7     6     2    4.3584E+01  2.8206E-01   4.3302E+01  0.000E+00  0.000E+00  0.000E+00  1.03988E+03  1.701E+00  1.200E+01  6.000E-02  1.567E+00
   1   11    7     6     3    4.3302E+01  2.8167E-01   4.3020E+01  0.000E+00  0.000E+00  0.000E+00  1.03533E+03  1.694E+00  1.200E+01  6.000E-02  1.565E+00
   1   12    7     6     4    4.3020E+01  2.8127E-01   4.2739E+01  0.000E+00  0.000E+00  0.000E+00  1.03078E+03  1.688E+00  1.200E+01  6.000E-02  1.563E+00
   1   13    7     6     5    4.2739E+01  1.0470E-02   4.2729E+01  0.000E+00  0.000E+00  0.000E+00  1.02759E+03  1.684E+00  1.200E+01  2.400E-02  1.454E-01
   1   14    9     7     1    1.5000E+02  1.3359E+00   1.4866E+02  0.000E+00  0.000E+00  0.000E+00  1.03987E+03  2.288E+00  5.529E+01  5.593E-01  7.962E-01
   1   13    8     7     2    1.4866E+02  1.8203E+00   1.4684E+02  0.000E+00  0.000E+00  0.000E+00  1.03478E+03  2.279E+00  5.526E+01  6.148E-01  9.870E-01
   1   13    7     7     3    1.4684E+02  1.4145E+00   1.4543E+02  0.000E+00  0.000E+00  0.000E+00  1.02969E+03  2.271E+00  5.522E+01  5.585E-01  8.443E-01
   1   13    6     8     1    1.8816E+02  9.2314E-01   1.8723E+02  0.000E+00  0.000E+00  0.000E+00  1.02494E+03  3.064E+00  4.443E+01  4.527E-01  6.797E-01
   1   13    5     8     2    1.8723E+02  1.4396E-01   1.8709E+02  0.000E+00  0.000E+00  0.000E+00  1.01869E+03  3.061E+00  4.438E+01  4.522E-01  1.061E-01
   1   13    4     8     3    1.8709E+02 -2.5941E+00   1.8968E+02  0.000E+00  0.000E+00  0.000E+00  1.01244E+03  3.068E+00  4.449E+01  4.533E+00 -1.907E-01
   1   13    3     8     4    1.8968E+02 -3.7011E+00   1.9339E+02  0.000E+00  0.000E+00  0.000E+00  1.00621E+03  3.087E+00  4.477E+01  4.562E+00 -2.704E-01
   1   13    2     8     5    1.9339E+02 -2.7642E+00   1.9615E+02  0.000E+00  0.000E+00  0.000E+00  9.99982E+02  3.107E+00  4.505E+01  4.590E+00 -2.007E-01
   1   13    1     8     6    1.9615E+02 -2.1030E+00   1.9825E+02  0.000E+00  0.000E+00  0.000E+00  9.94996E+02  3.121E+00  4.526E+01  2.767E+00 -2.533E-01
   1    8    6     9     1    2.2464E+01  0.0000E+00   2.2464E+01  0.000E+00  0.000E+00  0.000E+00  1.08243E+03  3.683E+00  4.000E+00  0.000E+00  2.228E+00
   1    8    5     9     2    2.2464E+01  0.0000E+00   2.2464E+01  0.000E+00  0.000E+00  0.000E+00  1.08193E+03  3.683E+00  4.000E+00  0.000E+00  2.228E+00



 UBDSV3 SAVING "           GW ET" ON UNIT  61 AT TIME STEP 10, STRESS PERIOD 7
 UBDSV3 SAVING "    UZF RECHARGE" ON UNIT  61 AT TIME STEP 10, STRESS PERIOD 7
 UBDSV3 SAVING " SURFACE LEAKAGE" ON UNIT  61 AT TIME STEP 10, STRESS PERIOD 7
 UBDSV3 SAVING "       HORT+DUNN" ON UNIT  61 AT TIME STEP 10, STRESS PERIOD 7
 UBDSV3 SAVING "  STORAGE CHANGE" ON UNIT  61 AT TIME STEP 10, STRESS PERIOD 7


UNSATURATED ZONE PACKAGE VOLUMETRIC BUDGET FOR  TIME STEP    10 STRESS PERIOD    7
  ------------------------------------------------------------------------------



     CUMULATIVE VOLUMES      L**3       RATES FOR THIS TIME STEP      L**3/T
     ------------------                 ------------------------

           IN:                                      IN:
           ---                                      ---
        INFILTRATION =    61860930.5432          INFILTRATION =          23.3116

          OUT:                                     OUT:
          ----                                     ----
              UZF ET =    60918358.6295                UZF ET =          23.3175
        UZF RECHARGE =       73224.0000          UZF RECHARGE =       0.0000E+00

            IN - OUT =      869347.9138              IN - OUT =      -5.8637E-03

          STORAGE:                                 STORAGE:
          --------                                 --------
      STORAGE CHANGE =      869560.6181        STORAGE CHANGE =      -5.8641E-03

 PERCENT DISCREPANCY IS DIFFERENCE BETWEEN IN-OUT MINUS CHANGE IN STORAGE
 DIVIDED BY THE AVERAGE OF IN AND OUT TIMES 100

 PERCENT DISCREPANCY =          -0.00     PERCENT DISCREPANCY =           0.00






 

            AG WELLS      PERIOD    7   STEP  10
 AG WELL      1   LAYER   1   ROW     6   COL     4   RATE     0.00000    
 AG WELL      2   LAYER   1   ROW     6   COL     5   RATE     0.00000    
 AG WELL      3   LAYER   1   ROW     7   COL     4   RATE     0.00000    
 AG WELL      4   LAYER   1   ROW     7   COL     5   RATE     0.00000    
 AG WELL      5   LAYER   1   ROW     8   COL     4   RATE     0.00000    
 AG WELL      6   LAYER   1   ROW     8   COL     5   RATE     0.00000    
 
 

   DIVERSION SEGMENTS     PERIOD    7   STEP  10
 SEGMENT      9   RATE     22.4637    
 
 

        SW IRRIGATION     PERIOD    7   STEP  10
 SEGMENT      9   ROW     6   COL     4   RATE     3.74402    
 SEGMENT      9   ROW     6   COL     5   RATE     3.74402    
 SEGMENT      9   ROW     7   COL     4   RATE     3.74402    
 SEGMENT      9   ROW     7   COL     5   RATE     3.74402    
 SEGMENT      9   ROW     8   COL     4   RATE     3.74402    
 SEGMENT      9   ROW     8   COL     5   RATE     3.74402    
 
 

        GW IRRIGATION     PERIOD    7   STEP  10
 AG WELL      1   ROW     6   COL     4   RATE     0.00000    
 AG WELL      2   ROW     6   COL     5   RATE     0.00000    
 AG WELL      3   ROW     7   COL     4   RATE     0.00000    
 AG WELL      4   ROW     7   COL     5   RATE     0.00000    
 AG WELL      5   ROW     8   COL     4   RATE     0.00000    
 AG WELL      6   ROW     8   COL     5   RATE     0.00000    
 
1
  VOLUMETRIC BUDGET FOR AGRICULTURAL FIELDS AT  END OF TIME STEP   10, STRESS PERIOD   7
  ------------------------------------------------------------------------------

     CUMULATIVE VOLUMES      L**3       RATES FOR THIS TIME STEP      L**3/T
     ------------------                 ------------------------

           IN:                                      IN:
           ---                                      ---
               AG WELLS  =      480208.6250                 AG WELLS  =           0.0000
      DIVERSION SEGMENTS =    49452080.0000        DIVERSION SEGMENTS =          22.4637
       IRRIGATION PONDS  =           0.0000         IRRIGATION PONDS  =           0.0000
           GW IRRIGATION =           0.0000             GW IRRIGATION =           0.0000
           SW IRRIGATION =           0.0000             SW IRRIGATION =           0.0000
        SYSTEM LOSSES GW =           0.0000          SYSTEM LOSSES GW =           0.0000
        SYSTEM LOSSES SW =           0.0000          SYSTEM LOSSES SW =           0.0000

                TOTAL IN =    49932288.0000                  TOTAL IN =          22.4637

          OUT:                                     OUT:
          ----                                     ----
               AG WELLS  =           0.0000                 AG WELLS  =           0.0000
      DIVERSION SEGMENTS =           0.0000        DIVERSION SEGMENTS =           0.0000
       IRRIGATION PONDS  =           0.0000         IRRIGATION PONDS  =           0.0000
           GW IRRIGATION =      480208.6250             GW IRRIGATION =           0.0000
           SW IRRIGATION =    49453068.0000             SW IRRIGATION =          22.4641
        SYSTEM LOSSES GW =           0.0000          SYSTEM LOSSES GW =           0.0000
        SYSTEM LOSSES SW =           0.0000          SYSTEM LOSSES SW =           0.0000

               TOTAL OUT =    49933276.0000                 TOTAL OUT =          22.4641

                IN - OUT =        -988.0000                  IN - OUT =      -4.5013E-04

     PERCENT DISCREPANCY =          -0.00         PERCENT DISCREPANCY =          -0.00



1
  VOLUMETRIC BUDGET FOR ENTIRE MODEL AT END OF TIME STEP   10, STRESS PERIOD   7
  ------------------------------------------------------------------------------

     CUMULATIVE VOLUMES      L**3       RATES FOR THIS TIME STEP      L**3/T
     ------------------                 ------------------------

           IN:                                      IN:
           ---                                      ---
             STORAGE     =    11289988.0000               STORAGE     =           1.0130
       CONSTANT HEAD     =           0.0000         CONSTANT HEAD     =           0.0000
     HEAD DEP BOUNDS     =     4032309.2500       HEAD DEP BOUNDS     =           0.2858
      STREAM LEAKAGE     =   172165072.0000        STREAM LEAKAGE     =          12.6959
        UZF RECHARGE     =       73223.9531          UZF RECHARGE     =           0.0000
               GW ET     =           0.0000                 GW ET     =           0.0000
     SURFACE LEAKAGE     =           0.0000       SURFACE LEAKAGE     =           0.0000
           AG WELLS      =           0.0000             AG WELLS      =           0.0000

                TOTAL IN =   187560592.0000                  TOTAL IN =          13.9946

          OUT:                                     OUT:
          ----                                     ----
             STORAGE     =    33709664.0000               STORAGE     =           2.2460
       CONSTANT HEAD     =           0.0000         CONSTANT HEAD     =           0.0000
     HEAD DEP BOUNDS     =     4117144.2500       HEAD DEP BOUNDS     =           0.2947
      STREAM LEAKAGE     =   148023872.0000        STREAM LEAKAGE     =          11.1623
        UZF RECHARGE     =           0.0000          UZF RECHARGE     =           0.0000
               GW ET     =     1233174.7500                 GW ET     =           0.2915
     SURFACE LEAKAGE     =           0.0000       SURFACE LEAKAGE     =           0.0000
           AG WELLS      =      480208.6250             AG WELLS      =           0.0000

               TOTAL OUT =   187564064.0000                 TOTAL OUT =          13.9944

                IN - OUT =       -3472.0000                  IN - OUT =       1.8692E-04

     PERCENT DISCREPANCY =          -0.00         PERCENT DISCREPANCY =           0.00






         TIME SUMMARY AT END OF TIME STEP   10 IN STRESS PERIOD    7
                    SECONDS     MINUTES      HOURS       DAYS        YEARS
                    -----------------------------------------------------------
   TIME STEP LENGTH  87667.      1461.1      24.352      1.0147     2.77799E-03
 STRESS PERIOD TIME 8.76667E+05  14611.      243.52      10.147     2.77799E-02
         TOTAL TIME 1.41131E+07 2.35218E+05  3920.3      163.35     0.44722    
1
 
 SOLVING FOR HEAD 
                                                   Max.-Head-Change                         Max.-Flux-Residual
  Residual-Control   Outer-Iter.   Inner-Iter.     Column Row Layer    Maximum-Head-Change  Column Row Layer    Maximum-Flux-Residual          L2-NORM 
          0                 1           2             4   13     1       0.5887852472E-02       4   13    1         0.3796050971E+00      0.7650344170E+00
          0                 2           2             4   13     1      -0.5672813159E-03       4   13    1        -0.3760403282E-01      0.7538150881E-01
          0                 3           2             4    7     1      -0.6970727411E-01       4    7    1        -0.3743817412E+01      0.9210988982E+01
          0                 4           2             4    7     1       0.7256165135E-01       4    7    1         0.4006057155E+01      0.9812167285E+01
          0                 5           2             4    7     1      -0.2888152974E-02       4    6    1        -0.1642696986E+00      0.4016207995E+00
          0                 6           1             4    7     1       0.3563847496E-04       4    6    1         0.2083341042E-02      0.5093572556E-02

    ------------------------------------------------
       NWT REQUIRED            6 OUTER ITERATIONS 
       AND A TOTAL OF         11 INNER ITERATIONS.
    ------------------------------------------------

 NO OUTPUT CONTROL FOR STRESS PERIOD    7   TIME STEP   11
 
 SOLVING FOR HEAD 
                                                   Max.-Head-Change                         Max.-Flux-Residual
  Residual-Control   Outer-Iter.   Inner-Iter.     Column Row Layer    Maximum-Head-Change  Column Row Layer    Maximum-Flux-Residual          L2-NORM 
          0                 1           2             4   13     1       0.6250724816E-02       4   13    1         0.4030024315E+00      0.7931037693E+00
          0                 2           2             4   13     1      -0.6022794650E-03       4   13    1        -0.3992423770E-01      0.7807803070E-01
          0                 3           2             4    7     1      -0.6970732155E-01       4    7    1        -0.3743819788E+01      0.9211044467E+01
          0                 4           2             4    7     1       0.7256174193E-01       4    7    1         0.4006061851E+01      0.9812188235E+01
          0                 5           2             4    7     1      -0.2888161541E-02       4    6    1        -0.1642916932E+00      0.4016302715E+00
          0                 6           1             4    7     1       0.3563858070E-04       4    6    1         0.2083619975E-02      0.5093690489E-02

    ------------------------------------------------
       NWT REQUIRED            6 OUTER ITERATIONS 
       AND A TOTAL OF         11 INNER ITERATIONS.
    ------------------------------------------------

 NO OUTPUT CONTROL FOR STRESS PERIOD    7   TIME STEP   12
 
 SOLVING FOR HEAD 
                                                   Max.-Head-Change                         Max.-Flux-Residual
  Residual-Control   Outer-Iter.   Inner-Iter.     Column Row Layer    Maximum-Head-Change  Column Row Layer    Maximum-Flux-Residual          L2-NORM 
          0                 1           2             4   13     1       0.6544078849E-02       4   13    1         0.4219106259E+00      0.8173274800E+00
          0                 2           2             4   13     1      -0.6305667204E-03       4   13    1        -0.4179888339E-01      0.8040446682E-01
          0                 3           2             4    7     1      -0.6970736132E-01       4    7    1        -0.3743821759E+01      0.9211095040E+01
          0                 4           2             4    7     1       0.7256182323E-01       4    7    1         0.4006066042E+01      0.9812207790E+01
          0                 5           2             4    7     1      -0.2888169655E-02       4    6    1        -0.1643133008E+00      0.4016395403E+00
          0                 6           1             4    7     1       0.3563868084E-04       4    6    1         0.2083893991E-02      0.5093810096E-02

    ------------------------------------------------
       NWT REQUIRED            6 OUTER ITERATIONS 
       AND A TOTAL OF         11 INNER ITERATIONS.
    ------------------------------------------------

 NO OUTPUT CONTROL FOR STRESS PERIOD    7   TIME STEP   13
 
 SOLVING FOR HEAD 
                                                   Max.-Head-Change                         Max.-Flux-Residual
  Residual-Control   Outer-Iter.   Inner-Iter.     Column Row Layer    Maximum-Head-Change  Column Row Layer    Maximum-Flux-Residual          L2-NORM 
          0                 1           2             4   13     1       0.6781324007E-02       4   13    1         0.4371960188E+00      0.8381763826E+00
          0                 2           2             4   13     1      -0.6534504198E-03       4   13    1        -0.4331478150E-01      0.8241283973E-01
          0                 3           2             4    7     1      -0.6970740402E-01       4    7    1        -0.3743823901E+01      0.9211141663E+01
          0                 4           2             4    7     1       0.7256190458E-01       4    7    1         0.4006070245E+01      0.9812227165E+01
          0                 5           2             4    7     1      -0.2888177688E-02       4    6    1        -0.1643345411E+00      0.4016486671E+00
          0                 6           1             4    7     1       0.3563877986E-04       4    6    1         0.2084163370E-02      0.5093925692E-02

    ------------------------------------------------
       NWT REQUIRED            6 OUTER ITERATIONS 
       AND A TOTAL OF         11 INNER ITERATIONS.
    ------------------------------------------------

 NO OUTPUT CONTROL FOR STRESS PERIOD    7   TIME STEP   14
 
 SOLVING FOR HEAD 
                                                   Max.-Head-Change                         Max.-Flux-Residual
  Residual-Control   Outer-Iter.   Inner-Iter.     Column Row Layer    Maximum-Head-Change  Column Row Layer    Maximum-Flux-Residual          L2-NORM 
          0                 1           2             4   13     1       0.6973351029E-02       4   13    1         0.4495626020E+00      0.8561157574E+00
          0                 2           2             4   13     1      -0.6719688744E-03       4   13    1        -0.4454097326E-01      0.8412979443E-01
          0                 3           2             4    7     1      -0.6970745391E-01       4    7    1        -0.3743826440E+01      0.9211186292E+01
          0                 4           2             4    7     1       0.7256199060E-01       4    7    1         0.4006074714E+01      0.9812247018E+01
          0                 5           2             4    7     1      -0.2888185827E-02       4    6    1        -0.1643554388E+00      0.4016576701E+00
          0                 6           1             4    7     1       0.3563888068E-04       4    6    1         0.2084428394E-02      0.5094044555E-02

    ------------------------------------------------
       NWT REQUIRED            6 OUTER ITERATIONS 
       AND A TOTAL OF         11 INNER ITERATIONS.
    ------------------------------------------------

 OUTPUT CONTROL FOR STRESS PERIOD    7   TIME STEP   15
    PRINT BUDGET
    SAVE BUDGET
 UBDSV1 SAVING "         STORAGE" ON UNIT 102 AT TIME STEP 15, STRESS PERIOD 7
 UBDSV2 SAVING "   CONSTANT HEAD" ON UNIT 102 AT TIME STEP 15, STRESS PERIOD 7
 UBDSV1 SAVING "FLOW RIGHT FACE " ON UNIT 102 AT TIME STEP 15, STRESS PERIOD 7
 UBDSV1 SAVING "FLOW FRONT FACE " ON UNIT 102 AT TIME STEP 15, STRESS PERIOD 7

  HEAD DEP BOUNDS   PERIOD    7   STEP    15
 BOUNDARY      1   LAYER   1   ROW    13   COL     1   RATE   -0.294333    
 BOUNDARY      2   LAYER   1   ROW    14   COL     9   RATE    0.285765    



 STREAM LISTING     PERIOD      7   STEP       15

 LAYER ROW COL. STREAM  RCH.  FLOW INTO     FLOW TO   FLOW OUT OF   OVRLND.     DIRECT     STREAM       STREAM     STREAM     STREAM   STREAMBED  STREAMBED
                SEG.NO.  NO.  STRM. RCH.    AQUIFER    STRM. RCH.    RUNOFF     PRECIP       ET          HEAD       DEPTH      WIDTH   CONDCTNC.   GRADIENT

   1    1    1     1     1    6.2250E+01  3.7978E-01   6.1870E+01  0.000E+00  0.000E+00  0.000E+00  1.09460E+03  1.553E+00  1.854E+01  8.342E-02  1.518E+00
   1    2    2     1     2    6.1870E+01  5.8817E-01   6.1282E+01  0.000E+00  0.000E+00  0.000E+00  1.08961E+03  1.547E+00  1.848E+01  1.294E-01  1.516E+00
   1    3    3     1     3    6.1282E+01  5.0163E-01   6.0781E+01  0.000E+00  0.000E+00  0.000E+00  1.08396E+03  1.540E+00  1.841E+01  1.105E-01  1.513E+00
   1    3    4     1     4    6.0781E+01  4.6194E-01   6.0319E+01  0.000E+00  0.000E+00  0.000E+00  1.07894E+03  1.534E+00  1.836E+01  1.019E-01  1.511E+00
   1    4    5     2     1    5.8319E+01  3.9026E-01   5.7928E+01  0.000E+00  0.000E+00  0.000E+00  1.07394E+03  2.003E+00  1.200E+01  7.800E-02  1.668E+00
   1    5    6     2     2    5.7928E+01  2.9977E-01   5.7629E+01  0.000E+00  0.000E+00  0.000E+00  1.06851E+03  1.996E+00  1.200E+01  6.000E-02  1.665E+00
   1    6    6     2     3    5.7629E+01  2.9940E-01   5.7329E+01  0.000E+00  0.000E+00  0.000E+00  1.06378E+03  1.990E+00  1.200E+01  6.000E-02  1.663E+00
   1    7    6     2     4    5.7329E+01  2.9903E-01   5.7030E+01  0.000E+00  0.000E+00  0.000E+00  1.05906E+03  1.984E+00  1.200E+01  6.000E-02  1.661E+00
   1    8    6     2     5    5.7030E+01  2.9865E-01   5.6732E+01  0.000E+00  0.000E+00  0.000E+00  1.05434E+03  1.978E+00  1.200E+01  6.000E-02  1.659E+00
   1    3    5     3     1    2.0000E+00  2.8252E-01   1.7175E+00  0.000E+00  0.000E+00  0.000E+00  1.07555E+03  1.909E+00  9.636E+00  7.227E-02  1.955E+00
   1    3    6     3     2    1.7175E+00  2.4905E-01   1.4684E+00  0.000E+00  0.000E+00  0.000E+00  1.07264E+03  1.727E+00  8.909E+00  6.682E-02  1.864E+00
   1    3    7     3     3    1.4684E+00  1.9718E-01   1.2712E+00  0.000E+00  0.000E+00  0.000E+00  1.06987E+03  1.555E+00  8.218E+00  5.547E-02  1.777E+00
   1    4    8     3     4    1.2712E+00  2.2567E-01   1.0456E+00  0.000E+00  0.000E+00  0.000E+00  1.06682E+03  1.364E+00  7.455E+00  6.709E-02  1.682E+00
   1    5    8     3     5    1.0456E+00  1.5790E-01   8.8768E-01  0.000E+00  0.000E+00  0.000E+00  1.06362E+03  1.164E+00  6.655E+00  4.991E-02  1.582E+00
   1    6    8     3     6    8.8768E-01  5.5980E-02   8.3170E-01  0.000E+00  0.000E+00  0.000E+00  1.06158E+03  1.036E+00  6.145E+00  1.844E-02  1.518E+00
   1    5   10     4     1    1.0000E+01  9.0919E-02   9.9091E+00  0.000E+00  0.000E+00  0.000E+00  1.07836E+03  6.368E-01  1.000E+01  2.500E-02  1.212E+00
   1    5    9     4     2    9.9091E+00  1.8158E-01   9.7275E+00  0.000E+00  0.000E+00  0.000E+00  1.07154E+03  6.315E-01  1.000E+01  5.000E-02  1.211E+00
   1    6    8     4     3    9.7275E+00  1.2689E-01   9.6006E+00  0.000E+00  0.000E+00  0.000E+00  1.06381E+03  6.256E-01  1.000E+01  3.500E-02  1.209E+00
   1    6    8     5     1    1.0432E+01  2.2686E-01   1.0205E+01  0.000E+00  0.000E+00  0.000E+00  1.05868E+03  6.790E-01  1.542E+01  6.166E-02  1.226E+00
   1    7    7     5     2    1.0205E+01  2.7894E-01   9.9265E+00  0.000E+00  0.000E+00  0.000E+00  1.05417E+03  6.732E-01  1.519E+01  7.594E-02  1.224E+00
   1    8    7     5     3    9.9265E+00  1.9221E-01   9.7343E+00  0.000E+00  0.000E+00  0.000E+00  1.04992E+03  6.676E-01  1.497E+01  5.241E-02  1.223E+00
   1    8    6     5     4    9.7343E+00  1.3577E-01   9.5985E+00  0.000E+00  0.000E+00  0.000E+00  1.04691E+03  6.637E-01  1.482E+01  3.706E-02  1.221E+00
   1    9    6     6     1    4.3866E+01  2.8246E-01   4.3584E+01  0.000E+00  0.000E+00  0.000E+00  1.04443E+03  1.708E+00  1.200E+01  6.000E-02  1.569E+00
   1   10    7     6     2    4.3584E+01  2.8206E-01   4.3302E+01  0.000E+00  0.000E+00  0.000E+00  1.03988E+03  1.701E+00  1.200E+01  6.000E-02  1.567E+00
   1   11    7     6     3    4.3302E+01  2.8167E-01   4.3020E+01  0.000E+00  0.000E+00  0.000E+00  1.03533E+03  1.694E+00  1.200E+01  6.000E-02  1.565E+00
   1   12    7     6     4    4.3020E+01  2.8127E-01   4.2739E+01  0.000E+00  0.000E+00  0.000E+00  1.03078E+03  1.688E+00  1.200E+01  6.000E-02  1.563E+00
   1   13    7     6     5    4.2739E+01  1.0424E-02   4.2728E+01  0.000E+00  0.000E+00  0.000E+00  1.02759E+03  1.684E+00  1.200E+01  2.400E-02  1.448E-01
   1   14    9     7     1    1.5000E+02  1.3359E+00   1.4866E+02  0.000E+00  0.000E+00  0.000E+00  1.03987E+03  2.288E+00  5.529E+01  5.593E-01  7.962E-01
   1   13    8     7     2    1.4866E+02  1.8198E+00   1.4684E+02  0.000E+00  0.000E+00  0.000E+00  1.03478E+03  2.279E+00  5.526E+01  6.148E-01  9.867E-01
   1   13    7     7     3    1.4684E+02  1.4134E+00   1.4543E+02  0.000E+00  0.000E+00  0.000E+00  1.02969E+03  2.271E+00  5.522E+01  5.585E-01  8.437E-01
   1   13    6     8     1    1.8816E+02  9.2382E-01   1.8724E+02  0.000E+00  0.000E+00  0.000E+00  1.02494E+03  3.064E+00  4.443E+01  4.527E-01  6.802E-01
   1   13    5     8     2    1.8724E+02  1.4499E-01   1.8709E+02  0.000E+00  0.000E+00  0.000E+00  1.01869E+03  3.061E+00  4.438E+01  4.522E-01  1.069E-01
   1   13    4     8     3    1.8709E+02 -2.5675E+00   1.8966E+02  0.000E+00  0.000E+00  0.000E+00  1.01244E+03  3.068E+00  4.449E+01  4.533E+00 -1.888E-01
   1   13    3     8     4    1.8966E+02 -3.6712E+00   1.9333E+02  0.000E+00  0.000E+00  0.000E+00  1.00621E+03  3.087E+00  4.476E+01  4.561E+00 -2.683E-01
   1   13    2     8     5    1.9333E+02 -2.6971E+00   1.9603E+02  0.000E+00  0.000E+00  0.000E+00  9.99981E+02  3.106E+00  4.504E+01  4.590E+00 -1.959E-01
   1   13    1     8     6    1.9603E+02 -2.0755E+00   1.9810E+02  0.000E+00  0.000E+00  0.000E+00  9.94995E+02  3.120E+00  4.525E+01  2.766E+00 -2.501E-01
   1    8    6     9     1    2.2464E+01  0.0000E+00   2.2464E+01  0.000E+00  0.000E+00  0.000E+00  1.08243E+03  3.683E+00  4.000E+00  0.000E+00  2.228E+00
   1    8    5     9     2    2.2464E+01  0.0000E+00   2.2464E+01  0.000E+00  0.000E+00  0.000E+00  1.08193E+03  3.683E+00  4.000E+00  0.000E+00  2.228E+00



 UBDSV3 SAVING "           GW ET" ON UNIT  61 AT TIME STEP 15, STRESS PERIOD 7
 UBDSV3 SAVING "    UZF RECHARGE" ON UNIT  61 AT TIME STEP 15, STRESS PERIOD 7
 UBDSV3 SAVING " SURFACE LEAKAGE" ON UNIT  61 AT TIME STEP 15, STRESS PERIOD 7
 UBDSV3 SAVING "       HORT+DUNN" ON UNIT  61 AT TIME STEP 15, STRESS PERIOD 7
 UBDSV3 SAVING "  STORAGE CHANGE" ON UNIT  61 AT TIME STEP 15, STRESS PERIOD 7


UNSATURATED ZONE PACKAGE VOLUMETRIC BUDGET FOR  TIME STEP    15 STRESS PERIOD    7
  ------------------------------------------------------------------------------



     CUMULATIVE VOLUMES      L**3       RATES FOR THIS TIME STEP      L**3/T
     ------------------                 ------------------------

           IN:                                      IN:
           ---                                      ---
        INFILTRATION =    72079230.9601          INFILTRATION =          23.3118

          OUT:                                     OUT:
          ----                                     ----
              UZF ET =    71139196.1089                UZF ET =          23.3175
        UZF RECHARGE =       73224.0000          UZF RECHARGE =       0.0000E+00

            IN - OUT =      866810.8513              IN - OUT =      -5.7378E-03

          STORAGE:                                 STORAGE:
          --------                                 --------
      STORAGE CHANGE =      867023.6348        STORAGE CHANGE =      -5.7383E-03

 PERCENT DISCREPANCY IS DIFFERENCE BETWEEN IN-OUT MINUS CHANGE IN STORAGE
 DIVIDED BY THE AVERAGE OF IN AND OUT TIMES 100

 PERCENT DISCREPANCY =          -0.00     PERCENT DISCREPANCY =           0.00






 

            AG WELLS      PERIOD    7   STEP  15
 AG WELL      1   LAYER   1   ROW     6   COL     4   RATE     0.00000    
 AG WELL      2   LAYER   1   ROW     6   COL     5   RATE     0.00000    
 AG WELL      3   LAYER   1   ROW     7   COL     4   RATE     0.00000    
 AG WELL      4   LAYER   1   ROW     7   COL     5   RATE     0.00000    
 AG WELL      5   LAYER   1   ROW     8   COL     4   RATE     0.00000    
 AG WELL      6   LAYER   1   ROW     8   COL     5   RATE     0.00000    
 
 

   DIVERSION SEGMENTS     PERIOD    7   STEP  15
 SEGMENT      9   RATE     22.4638    
 
 

        SW IRRIGATION     PERIOD    7   STEP  15
 SEGMENT      9   ROW     6   COL     4   RATE     3.74404    
 SEGMENT      9   ROW     6   COL     5   RATE     3.74404    
 SEGMENT      9   ROW     7   COL     4   RATE     3.74404    
 SEGMENT      9   ROW     7   COL     5   RATE     3.74404    
 SEGMENT      9   ROW     8   COL     4   RATE     3.74404    
 SEGMENT      9   ROW     8   COL     5   RATE     3.74404    
 
 

        GW IRRIGATION     PERIOD    7   STEP  15
 AG WELL      1   ROW     6   COL     4   RATE     0.00000    
 AG WELL      2   ROW     6   COL     5   RATE     0.00000    
 AG WELL      3   ROW     7   COL     4   RATE     0.00000    
 AG WELL      4   ROW     7   COL     5   RATE     0.00000    
 AG WELL      5   ROW     8   COL     4   RATE     0.00000    
 AG WELL      6   ROW     8   COL     5   RATE     0.00000    
 
1
  VOLUMETRIC BUDGET FOR AGRICULTURAL FIELDS AT  END OF TIME STEP   15, STRESS PERIOD   7
  ------------------------------------------------------------------------------

     CUMULATIVE VOLUMES      L**3       RATES FOR THIS TIME STEP      L**3/T
     ------------------                 ------------------------

           IN:                                      IN:
           ---                                      ---
               AG WELLS  =      480208.6250                 AG WELLS  =           0.0000
      DIVERSION SEGMENTS =    59298696.0000        DIVERSION SEGMENTS =          22.4638
       IRRIGATION PONDS  =           0.0000         IRRIGATION PONDS  =           0.0000
           GW IRRIGATION =           0.0000             GW IRRIGATION =           0.0000
           SW IRRIGATION =           0.0000             SW IRRIGATION =           0.0000
        SYSTEM LOSSES GW =           0.0000          SYSTEM LOSSES GW =           0.0000
        SYSTEM LOSSES SW =           0.0000          SYSTEM LOSSES SW =           0.0000

                TOTAL IN =    59778904.0000                  TOTAL IN =          22.4638

          OUT:                                     OUT:
          ----                                     ----
               AG WELLS  =           0.0000                 AG WELLS  =           0.0000
      DIVERSION SEGMENTS =           0.0000        DIVERSION SEGMENTS =           0.0000
       IRRIGATION PONDS  =           0.0000         IRRIGATION PONDS  =           0.0000
           GW IRRIGATION =      480208.6250             GW IRRIGATION =           0.0000
           SW IRRIGATION =    59299880.0000             SW IRRIGATION =          22.4643
        SYSTEM LOSSES GW =           0.0000          SYSTEM LOSSES GW =           0.0000
        SYSTEM LOSSES SW =           0.0000          SYSTEM LOSSES SW =           0.0000

               TOTAL OUT =    59780088.0000                 TOTAL OUT =          22.4643

                IN - OUT =       -1184.0000                  IN - OUT =      -4.5013E-04

     PERCENT DISCREPANCY =          -0.00         PERCENT DISCREPANCY =          -0.00



1
  VOLUMETRIC BUDGET FOR ENTIRE MODEL AT END OF TIME STEP   15, STRESS PERIOD   7
  ------------------------------------------------------------------------------

     CUMULATIVE VOLUMES      L**3       RATES FOR THIS TIME STEP      L**3/T
     ------------------                 ------------------------

           IN:                                      IN:
           ---                                      ---
             STORAGE     =    11653928.0000               STORAGE     =           0.7346
       CONSTANT HEAD     =           0.0000         CONSTANT HEAD     =           0.0000
     HEAD DEP BOUNDS     =     4157569.2500       HEAD DEP BOUNDS     =           0.2858
      STREAM LEAKAGE     =   177730112.0000        STREAM LEAKAGE     =          12.6960
        UZF RECHARGE     =       73223.9531          UZF RECHARGE     =           0.0000
               GW ET     =           0.0000                 GW ET     =           0.0000
     SURFACE LEAKAGE     =           0.0000       SURFACE LEAKAGE     =           0.0000
           AG WELLS      =           0.0000             AG WELLS      =           0.0000

                TOTAL IN =   193614832.0000                  TOTAL IN =          13.7163

          OUT:                                     OUT:
          ----                                     ----
             STORAGE     =    34685316.0000               STORAGE     =           2.2142
       CONSTANT HEAD     =           0.0000         CONSTANT HEAD     =           0.0000
     HEAD DEP BOUNDS     =     4246227.0000       HEAD DEP BOUNDS     =           0.2943
      STREAM LEAKAGE     =   152873840.0000        STREAM LEAKAGE     =          11.0111
        UZF RECHARGE     =           0.0000          UZF RECHARGE     =           0.0000
               GW ET     =     1332671.8750                 GW ET     =           0.1964
     SURFACE LEAKAGE     =           0.0000       SURFACE LEAKAGE     =           0.0000
           AG WELLS      =      480208.6250             AG WELLS      =           0.0000

               TOTAL OUT =   193618256.0000                 TOTAL OUT =          13.7161

                IN - OUT =       -3424.0000                  IN - OUT =       1.8787E-04

     PERCENT DISCREPANCY =          -0.00         PERCENT DISCREPANCY =           0.00






         TIME SUMMARY AT END OF TIME STEP   15 IN STRESS PERIOD    7
                    SECONDS     MINUTES      HOURS       DAYS        YEARS
                    -----------------------------------------------------------
   TIME STEP LENGTH  87667.      1461.1      24.352      1.0147     2.77799E-03
 STRESS PERIOD TIME 1.31500E+06  21917.      365.28      15.220     4.16698E-02
         TOTAL TIME 1.45514E+07 2.42524E+05  4042.1      168.42     0.46111    
1
 
 SOLVING FOR HEAD 
                                                   Max.-Head-Change                         Max.-Flux-Residual
  Residual-Control   Outer-Iter.   Inner-Iter.     Column Row Layer    Maximum-Head-Change  Column Row Layer    Maximum-Flux-Residual          L2-NORM 
          0                 1           2             4   13     1       0.7128816589E-02       4   13    1         0.4595692694E+00      0.8715764269E+00
          0                 2           2             4   13     1      -0.6869598044E-03       4   13    1        -0.4553305894E-01      0.8561270571E-01
          0                 3           2             4    7     1      -0.6970750196E-01       4    7    1        -0.3743828891E+01      0.9211227031E+01
          0                 4           2             4    7     1       0.7256207204E-01       4    7    1         0.4006078938E+01      0.9812266073E+01
          0                 5           2             4    7     1      -0.2888193703E-02       4    6    1        -0.1643759781E+00      0.4016665035E+00
          0                 6           1             4    7     1       0.3563897746E-04       4    6    1         0.2084688875E-02      0.5094154441E-02

    ------------------------------------------------
       NWT REQUIRED            6 OUTER ITERATIONS 
       AND A TOTAL OF         11 INNER ITERATIONS.
    ------------------------------------------------

 NO OUTPUT CONTROL FOR STRESS PERIOD    7   TIME STEP   16
 
 SOLVING FOR HEAD 
                                                   Max.-Head-Change                         Max.-Flux-Residual
  Residual-Control   Outer-Iter.   Inner-Iter.     Column Row Layer    Maximum-Head-Change  Column Row Layer    Maximum-Flux-Residual          L2-NORM 
          0                 1           2             4   13     1       0.7254747335E-02       4   13    1         0.4676702692E+00      0.8849302186E+00
          0                 2           2             4   13     1      -0.6990968703E-03       4   13    1        -0.4633580943E-01      0.8689270572E-01
          0                 3           2             4    7     1      -0.6970755241E-01       4    8    1        -0.3743833107E+01      0.9211265177E+01
          0                 4           2             4    7     1       0.7256215352E-01       4    7    1         0.4006083172E+01      0.9812284964E+01
          0                 5           2             4    7     1      -0.2888201507E-02       4    6    1        -0.1643961903E+00      0.4016751997E+00
          0                 6           1             4    7     1       0.3563907379E-04       4    6    1         0.2084945218E-02      0.5094260036E-02

    ------------------------------------------------
       NWT REQUIRED            6 OUTER ITERATIONS 
       AND A TOTAL OF         11 INNER ITERATIONS.
    ------------------------------------------------

 NO OUTPUT CONTROL FOR STRESS PERIOD    7   TIME STEP   17
 
 SOLVING FOR HEAD 
                                                   Max.-Head-Change                         Max.-Flux-Residual
  Residual-Control   Outer-Iter.   Inner-Iter.     Column Row Layer    Maximum-Head-Change  Column Row Layer    Maximum-Flux-Residual          L2-NORM 
          0                 1           2             4   13     1       0.7356853173E-02       4   13    1         0.4742342225E+00      0.8965054346E+00
          0                 2           2             4   13     1      -0.7089481892E-03       4   13    1        -0.4698694859E-01      0.8800217323E-01
          0                 3           2             4    7     1      -0.6970760952E-01       4    8    1        -0.3743838722E+01      0.9211301512E+01
          0                 4           2             4    7     1       0.7256223965E-01       4    7    1         0.4006087671E+01      0.9812302542E+01
          0                 5           2             4    7     1      -0.2888209425E-02       4    6    1        -0.1644107782E+00      0.4016805444E+00
          0                 6           1             4    7     1       0.3563917147E-04       4    6    1         0.2085130261E-02      0.5094331854E-02

    ------------------------------------------------
       NWT REQUIRED            6 OUTER ITERATIONS 
       AND A TOTAL OF         11 INNER ITERATIONS.
    ------------------------------------------------

 NO OUTPUT CONTROL FOR STRESS PERIOD    7   TIME STEP   18
 
 SOLVING FOR HEAD 
                                                   Max.-Head-Change                         Max.-Flux-Residual
  Residual-Control   Outer-Iter.   Inner-Iter.     Column Row Layer    Maximum-Head-Change  Column Row Layer    Maximum-Flux-Residual          L2-NORM 
          0                 1           2             4   13     1       0.7439642577E-02       4   13    1         0.4795523177E+00      0.9065685373E+00
          0                 2           2             4   13     1      -0.7169242297E-03       4   13    1        -0.4751373141E-01      0.8896469018E-01
          0                 3           2             4    7     1      -0.6970766431E-01       4    8    1        -0.3743844045E+01      0.9211335154E+01
          0                 4           2             4    7     1       0.7256232118E-01       4    7    1         0.4006091923E+01      0.9812321138E+01
          0                 5           2             4    7     1      -0.2888217089E-02       4    6    1        -0.1644303702E+00      0.4016889726E+00
          0                 6           1             4    7     1       0.3563926646E-04       4    6    1         0.2085378715E-02      0.5094437780E-02

    ------------------------------------------------
       NWT REQUIRED            6 OUTER ITERATIONS 
       AND A TOTAL OF         11 INNER ITERATIONS.
    ------------------------------------------------

 NO OUTPUT CONTROL FOR STRESS PERIOD    7   TIME STEP   19
 
 SOLVING FOR HEAD 
                                                   Max.-Head-Change                         Max.-Flux-Residual
  Residual-Control   Outer-Iter.   Inner-Iter.     Column Row Layer    Maximum-Head-Change  Column Row Layer    Maximum-Flux-Residual          L2-NORM 
          0                 1           2             4   13     1       0.7506918133E-02       4   13    1         0.4838702298E+00      0.9153626859E+00
          0                 2           2             4   13     1      -0.7234018433E-03       4   13    1        -0.4794117040E-01      0.8980645333E-01
          0                 3           2             4    7     1      -0.6970772101E-01       4    8    1        -0.3743849315E+01      0.9211366972E+01
          0                 4           2             4    7     1       0.7256240274E-01       4    7    1         0.4006096183E+01      0.9812339605E+01
          0                 5           2             4    7     1      -0.2888224688E-02       4    6    1        -0.1644496706E+00      0.4016972692E+00
          0                 6           1             4    7     1       0.3563936011E-04       4    6    1         0.2085623482E-02      0.5094536589E-02

    ------------------------------------------------
       NWT REQUIRED            6 OUTER ITERATIONS 
       AND A TOTAL OF         11 INNER ITERATIONS.
    ------------------------------------------------

 NO OUTPUT CONTROL FOR STRESS PERIOD    7   TIME STEP   20
 
 SOLVING FOR HEAD 
                                                   Max.-Head-Change                         Max.-Flux-Residual
  Residual-Control   Outer-Iter.   Inner-Iter.     Column Row Layer    Maximum-Head-Change  Column Row Layer    Maximum-Flux-Residual          L2-NORM 
          0                 1           2             4   13     1       0.7561535273E-02       4   13    1         0.4873722439E+00      0.9230679803E+00
          0                 2           2             4   13     1      -0.7286662392E-03       4   13    1        -0.4828821348E-01      0.9054365319E-01
          0                 3           2             4    7     1      -0.6970778396E-01       4    8    1        -0.3743854772E+01      0.9211397678E+01
          0                 4           2             4    7     1       0.7256248894E-01       4    7    1         0.4006100705E+01      0.9812358566E+01
          0                 5           2             4    7     1      -0.2888232408E-02       4    6    1        -0.1644687002E+00      0.4017054876E+00
          0                 6           1             4    7     1       0.3563945510E-04       4    6    1         0.2085864832E-02      0.5094646060E-02

    ------------------------------------------------
       NWT REQUIRED            6 OUTER ITERATIONS 
       AND A TOTAL OF         11 INNER ITERATIONS.
    ------------------------------------------------

 NO OUTPUT CONTROL FOR STRESS PERIOD    7   TIME STEP   21
 
 SOLVING FOR HEAD 
                                                   Max.-Head-Change                         Max.-Flux-Residual
  Residual-Control   Outer-Iter.   Inner-Iter.     Column Row Layer    Maximum-Head-Change  Column Row Layer    Maximum-Flux-Residual          L2-NORM 
          0                 1           2             4   13     1       0.7605997086E-02       4   13    1         0.4902199015E+00      0.9298492691E+00
          0                 2           2             4   13     1      -0.7329484030E-03       4   13    1        -0.4857019441E-01      0.9119082463E-01
          0                 3           2             4    7     1      -0.6970784418E-01       4    8    1        -0.3743859944E+01      0.9211426244E+01
          0                 4           2             4    7     1       0.7256257053E-01       4    7    1         0.4006104980E+01      0.9812376768E+01
          0                 5           2             4    7     1      -0.2888239880E-02       4    6    1        -0.1644874401E+00      0.4017135596E+00
          0                 6           1             4    7     1       0.3563954762E-04       4    6    1         0.2086102488E-02      0.5094746195E-02

    ------------------------------------------------
       NWT REQUIRED            6 OUTER ITERATIONS 
       AND A TOTAL OF         11 INNER ITERATIONS.
    ------------------------------------------------

 NO OUTPUT CONTROL FOR STRESS PERIOD    7   TIME STEP   22
 
 SOLVING FOR HEAD 
                                                   Max.-Head-Change                         Max.-Flux-Residual
  Residual-Control   Outer-Iter.   Inner-Iter.     Column Row Layer    Maximum-Head-Change  Column Row Layer    Maximum-Flux-Residual          L2-NORM 
          0                 1           2             4   13     1       0.7642258822E-02       4   13    1         0.4925394494E+00      0.9358460162E+00
          0                 2           2             4   13     1      -0.7364380011E-03       4   13    1        -0.4879967804E-01      0.9176300477E-01
          0                 3           2             4    7     1      -0.6970790149E-01       4    8    1        -0.3743864920E+01      0.9211452927E+01
          0                 4           2             4    7     1       0.7256264752E-01       4    7    1         0.4006109005E+01      0.9812394229E+01
          0                 5           2             4    7     1      -0.2888247110E-02       4    6    1        -0.1645059080E+00      0.4017214973E+00
          0                 6           1             4    7     1       0.3563963701E-04       4    6    1         0.2086336704E-02      0.5094848757E-02

    ------------------------------------------------
       NWT REQUIRED            6 OUTER ITERATIONS 
       AND A TOTAL OF         11 INNER ITERATIONS.
    ------------------------------------------------

 NO OUTPUT CONTROL FOR STRESS PERIOD    7   TIME STEP   23
 
 SOLVING FOR HEAD 
                                                   Max.-Head-Change                         Max.-Flux-Residual
  Residual-Control   Outer-Iter.   Inner-Iter.     Column Row Layer    Maximum-Head-Change  Column Row Layer    Maximum-Flux-Residual          L2-NORM 
          0                 1           2             4   13     1       0.7671876654E-02       4   13    1         0.4944311761E+00      0.9411675953E+00
          0                 2           2             4   13     1      -0.7392841584E-03       4   13    1        -0.4898657509E-01      0.9226955047E-01
          0                 3           2             4    7     1      -0.6970796472E-01       4    8    1        -0.3743869994E+01      0.9211478931E+01
          0                 4           2             4    7     1       0.7256272913E-01       4    7    1         0.4006113292E+01      0.9812412198E+01
          0                 5           2             4    7     1      -0.2888254465E-02       4    6    1        -0.1645241258E+00      0.4017293640E+00
          0                 6           1             4    7     1       0.3563972797E-04       4    6    1         0.2086567747E-02      0.5094948522E-02

    ------------------------------------------------
       NWT REQUIRED            6 OUTER ITERATIONS 
       AND A TOTAL OF         11 INNER ITERATIONS.
    ------------------------------------------------

 NO OUTPUT CONTROL FOR STRESS PERIOD    7   TIME STEP   24
 
 SOLVING FOR HEAD 
                                                   Max.-Head-Change                         Max.-Flux-Residual
  Residual-Control   Outer-Iter.   Inner-Iter.     Column Row Layer    Maximum-Head-Change  Column Row Layer    Maximum-Flux-Residual          L2-NORM 
          0                 1           2             4   13     1       0.7696066634E-02       4   13    1         0.4959738670E+00      0.9458988199E+00
          0                 2           2             4   13     1      -0.7416352653E-03       4   13    1        -0.4914073652E-01      0.9272319790E-01
          0                 3           2             4    7     1      -0.6970802302E-01       4    8    1        -0.3743874785E+01      0.9211502895E+01
          0                 4           2             4    7     1       0.7256280604E-01       4    7    1         0.4006117322E+01      0.9812429418E+01
          0                 5           2             4    7     1      -0.2888261574E-02       4    6    1        -0.1645420739E+00      0.4017370867E+00
          0                 6           1             4    7     1       0.3563981556E-04       4    6    1         0.2086795389E-02      0.5095047336E-02

    ------------------------------------------------
       NWT REQUIRED            6 OUTER ITERATIONS 
       AND A TOTAL OF         11 INNER ITERATIONS.
    ------------------------------------------------

 NO OUTPUT CONTROL FOR STRESS PERIOD    7   TIME STEP   25
 
 SOLVING FOR HEAD 
                                                   Max.-Head-Change                         Max.-Flux-Residual
  Residual-Control   Outer-Iter.   Inner-Iter.     Column Row Layer    Maximum-Head-Change  Column Row Layer    Maximum-Flux-Residual          L2-NORM 
          0                 1           2             4   13     1       0.7715835122E-02       4   13    1         0.4972320769E+00      0.9501227905E+00
          0                 2           2             4   13     1      -0.7435253842E-03       4   13    1        -0.4926440351E-01      0.9312418121E-01
          0                 3           2             4    7     1      -0.6970809335E-01       4    8    1        -0.3743880008E+01      0.9211527188E+01
          0                 4           2             4    7     1       0.7256289229E-01       4    7    1         0.4006121874E+01      0.9812447778E+01
          0                 5           2             4    7     1      -0.2888268998E-02       4    6    1        -0.1645597999E+00      0.4017447716E+00
          0                 6           1             4    7     1       0.3563990697E-04       4    6    1         0.2087020157E-02      0.5095149628E-02

    ------------------------------------------------
       NWT REQUIRED            6 OUTER ITERATIONS 
       AND A TOTAL OF         11 INNER ITERATIONS.
    ------------------------------------------------

 NO OUTPUT CONTROL FOR STRESS PERIOD    7   TIME STEP   26
 
 SOLVING FOR HEAD 
                                                   Max.-Head-Change                         Max.-Flux-Residual
  Residual-Control   Outer-Iter.   Inner-Iter.     Column Row Layer    Maximum-Head-Change  Column Row Layer    Maximum-Flux-Residual          L2-NORM 
          0                 1           2             4   13     1       0.7732110091E-02       4   13    1         0.4982658456E+00      0.9539136426E+00
          0                 2           2             4   13     1      -0.7450842614E-03       4   13    1        -0.4936618931E-01      0.9348432216E-01
          0                 3           2             4    7     1      -0.6970815593E-01       4    8    1        -0.3743884807E+01      0.9211549500E+01
          0                 4           2             4    7     1       0.7256296929E-01       4    7    1         0.4006125922E+01      0.9812464799E+01
          0                 5           2             4    7     1      -0.2888276003E-02       4    6    1        -0.1645772781E+00      0.4017523099E+00
          0                 6           1             4    7     1       0.3563999322E-04       4    6    1         0.2087241839E-02      0.5095237648E-02

    ------------------------------------------------
       NWT REQUIRED            6 OUTER ITERATIONS 
       AND A TOTAL OF         11 INNER ITERATIONS.
    ------------------------------------------------

 NO OUTPUT CONTROL FOR STRESS PERIOD    7   TIME STEP   27
 
 SOLVING FOR HEAD 
                                                   Max.-Head-Change                         Max.-Flux-Residual
  Residual-Control   Outer-Iter.   Inner-Iter.     Column Row Layer    Maximum-Head-Change  Column Row Layer    Maximum-Flux-Residual          L2-NORM 
          0                 1           2             4   13     1       0.7745498892E-02       4   13    1         0.4991143318E+00      0.9573193226E+00
          0                 2           2             4   13     1      -0.7463785695E-03       4   13    1        -0.4945052482E-01      0.9380825812E-01
          0                 3           2             4    7     1      -0.6970821956E-01       4    8    1        -0.3743889470E+01      0.9211570725E+01
          0                 4           2             4    7     1       0.7256304629E-01       4    7    1         0.4006129973E+01      0.9812481704E+01
          0                 5           2             4    7     1      -0.2888282953E-02       4    6    1        -0.1645945133E+00      0.4017597568E+00
          0                 6           1             4    7     1       0.3564007925E-04       4    6    1         0.2087460399E-02      0.5095332970E-02

    ------------------------------------------------
       NWT REQUIRED            6 OUTER ITERATIONS 
       AND A TOTAL OF         11 INNER ITERATIONS.
    ------------------------------------------------

 NO OUTPUT CONTROL FOR STRESS PERIOD    7   TIME STEP   28
 
 SOLVING FOR HEAD 
                                                   Max.-Head-Change                         Max.-Flux-Residual
  Residual-Control   Outer-Iter.   Inner-Iter.     Column Row Layer    Maximum-Head-Change  Column Row Layer    Maximum-Flux-Residual          L2-NORM 
          0                 1           2             4   13     1       0.7756521878E-02       4   13    1         0.4998110115E+00      0.9603854237E+00
          0                 2           2             4   13     1      -0.7474359266E-03       4   13    1        -0.4951921876E-01      0.9409892362E-01
          0                 3           2             4    7     1      -0.6970828415E-01       4    8    1        -0.3743894095E+01      0.9211591242E+01
          0                 4           2             4    7     1       0.7256312329E-01       4    7    1         0.4006134029E+01      0.9812498509E+01
          0                 5           2             4    7     1      -0.2888289855E-02       4    6    1        -0.1646115369E+00      0.4017670640E+00
          0                 6           1             4    7     1       0.3564016460E-04       4    6    1         0.2087676286E-02      0.5095410174E-02

    ------------------------------------------------
       NWT REQUIRED            6 OUTER ITERATIONS 
       AND A TOTAL OF         11 INNER ITERATIONS.
    ------------------------------------------------

 NO OUTPUT CONTROL FOR STRESS PERIOD    7   TIME STEP   29
 
 SOLVING FOR HEAD 
                                                   Max.-Head-Change                         Max.-Flux-Residual
  Residual-Control   Outer-Iter.   Inner-Iter.     Column Row Layer    Maximum-Head-Change  Column Row Layer    Maximum-Flux-Residual          L2-NORM 
          0                 1           2             4   13     1       0.6208969773E-02       4   13    1         0.3998883596E+00      0.7971943287E+00
          0                 2           2             4   13     1      -0.5983679004E-03       4   13    1        -0.3962302782E-01      0.7826960278E-01
          0                 3           2             4    7     1      -0.6970835428E-01       4    8    1        -0.3743899014E+01      0.9211264265E+01
          0                 4           2             4    7     1       0.7256320491E-01       4    7    1         0.4006138343E+01      0.9812514548E+01
          0                 5           2             4    7     1      -0.2888296889E-02       4    6    1        -0.1646283414E+00      0.4017743524E+00
          0                 6           1             4    7     1       0.3564025130E-04       4    6    1         0.2087889433E-02      0.5095509697E-02

    ------------------------------------------------
       NWT REQUIRED            6 OUTER ITERATIONS 
       AND A TOTAL OF         11 INNER ITERATIONS.
    ------------------------------------------------

 NO OUTPUT CONTROL FOR STRESS PERIOD    7   TIME STEP   30



 STREAM LISTING     PERIOD      7   STEP       30

 LAYER ROW COL. STREAM  RCH.  FLOW INTO     FLOW TO   FLOW OUT OF   OVRLND.     DIRECT     STREAM       STREAM     STREAM     STREAM   STREAMBED  STREAMBED
                SEG.NO.  NO.  STRM. RCH.    AQUIFER    STRM. RCH.    RUNOFF     PRECIP       ET          HEAD       DEPTH      WIDTH   CONDCTNC.   GRADIENT

   1    1    1     1     1    5.7704E+01  3.6391E-01   5.7340E+01  0.000E+00  0.000E+00  0.000E+00  1.09454E+03  1.497E+00  1.798E+01  8.092E-02  1.499E+00
   1    2    2     1     2    5.7340E+01  5.6353E-01   5.6777E+01  0.000E+00  0.000E+00  0.000E+00  1.08955E+03  1.491E+00  1.792E+01  1.255E-01  1.497E+00
   1    3    3     1     3    5.6777E+01  4.8055E-01   5.6296E+01  0.000E+00  0.000E+00  0.000E+00  1.08390E+03  1.485E+00  1.786E+01  1.071E-01  1.495E+00
   1    3    4     1     4    5.6296E+01  4.4247E-01   5.5854E+01  0.000E+00  0.000E+00  0.000E+00  1.07889E+03  1.479E+00  1.780E+01  9.879E-02  1.493E+00
   1    4    5     2     1    5.3854E+01  3.8295E-01   5.3471E+01  0.000E+00  0.000E+00  0.000E+00  1.07384E+03  1.910E+00  1.200E+01  7.800E-02  1.637E+00
   1    5    6     2     2    5.3471E+01  2.9414E-01   5.3177E+01  0.000E+00  0.000E+00  0.000E+00  1.06841E+03  1.902E+00  1.200E+01  6.000E-02  1.634E+00
   1    6    6     2     3    5.3177E+01  2.9376E-01   5.2883E+01  0.000E+00  0.000E+00  0.000E+00  1.06369E+03  1.896E+00  1.200E+01  6.000E-02  1.632E+00
   1    7    6     2     4    5.2883E+01  2.9339E-01   5.2590E+01  0.000E+00  0.000E+00  0.000E+00  1.05897E+03  1.890E+00  1.200E+01  6.000E-02  1.630E+00
   1    8    6     2     5    5.2590E+01  2.9301E-01   5.2297E+01  0.000E+00  0.000E+00  0.000E+00  1.05424E+03  1.883E+00  1.200E+01  6.000E-02  1.628E+00
   1    3    5     3     1    2.0000E+00  2.8252E-01   1.7175E+00  0.000E+00  0.000E+00  0.000E+00  1.07555E+03  1.909E+00  9.636E+00  7.227E-02  1.955E+00
   1    3    6     3     2    1.7175E+00  2.4905E-01   1.4684E+00  0.000E+00  0.000E+00  0.000E+00  1.07264E+03  1.727E+00  8.909E+00  6.682E-02  1.864E+00
   1    3    7     3     3    1.4684E+00  1.9718E-01   1.2712E+00  0.000E+00  0.000E+00  0.000E+00  1.06987E+03  1.555E+00  8.218E+00  5.547E-02  1.777E+00
   1    4    8     3     4    1.2712E+00  2.2567E-01   1.0456E+00  0.000E+00  0.000E+00  0.000E+00  1.06682E+03  1.364E+00  7.455E+00  6.709E-02  1.682E+00
   1    5    8     3     5    1.0456E+00  1.5790E-01   8.8768E-01  0.000E+00  0.000E+00  0.000E+00  1.06362E+03  1.164E+00  6.655E+00  4.991E-02  1.582E+00
   1    6    8     3     6    8.8768E-01  5.5980E-02   8.3170E-01  0.000E+00  0.000E+00  0.000E+00  1.06158E+03  1.036E+00  6.145E+00  1.844E-02  1.518E+00
   1    5   10     4     1    1.0000E+01  9.0919E-02   9.9091E+00  0.000E+00  0.000E+00  0.000E+00  1.07836E+03  6.368E-01  1.000E+01  2.500E-02  1.212E+00
   1    5    9     4     2    9.9091E+00  1.8158E-01   9.7275E+00  0.000E+00  0.000E+00  0.000E+00  1.07154E+03  6.315E-01  1.000E+01  5.000E-02  1.211E+00
   1    6    8     4     3    9.7275E+00  1.2689E-01   9.6006E+00  0.000E+00  0.000E+00  0.000E+00  1.06381E+03  6.256E-01  1.000E+01  3.500E-02  1.209E+00
   1    6    8     5     1    1.0432E+01  2.2686E-01   1.0205E+01  0.000E+00  0.000E+00  0.000E+00  1.05868E+03  6.790E-01  1.542E+01  6.166E-02  1.226E+00
   1    7    7     5     2    1.0205E+01  2.7894E-01   9.9265E+00  0.000E+00  0.000E+00  0.000E+00  1.05417E+03  6.732E-01  1.519E+01  7.594E-02  1.224E+00
   1    8    7     5     3    9.9265E+00  1.9221E-01   9.7343E+00  0.000E+00  0.000E+00  0.000E+00  1.04992E+03  6.676E-01  1.497E+01  5.241E-02  1.223E+00
   1    8    6     5     4    9.7343E+00  1.3577E-01   9.5985E+00  0.000E+00  0.000E+00  0.000E+00  1.04691E+03  6.637E-01  1.482E+01  3.706E-02  1.221E+00
   1    9    6     6     1    3.9431E+01  2.7610E-01   3.9155E+01  0.000E+00  0.000E+00  0.000E+00  1.04433E+03  1.602E+00  1.200E+01  6.000E-02  1.534E+00
   1   10    7     6     2    3.9155E+01  2.7569E-01   3.8879E+01  0.000E+00  0.000E+00  0.000E+00  1.03978E+03  1.595E+00  1.200E+01  6.000E-02  1.532E+00
   1   11    7     6     3    3.8879E+01  2.7529E-01   3.8604E+01  0.000E+00  0.000E+00  0.000E+00  1.03522E+03  1.588E+00  1.200E+01  6.000E-02  1.529E+00
   1   12    7     6     4    3.8604E+01  2.7488E-01   3.8329E+01  0.000E+00  0.000E+00  0.000E+00  1.03067E+03  1.581E+00  1.200E+01  6.000E-02  1.527E+00
   1   13    7     6     5    3.8329E+01  7.7648E-03   3.8321E+01  0.000E+00  0.000E+00  0.000E+00  1.02749E+03  1.578E+00  1.200E+01  2.400E-02  1.078E-01
   1   14    9     7     1    1.5000E+02  1.3359E+00   1.4866E+02  0.000E+00  0.000E+00  0.000E+00  1.03987E+03  2.288E+00  5.529E+01  5.593E-01  7.962E-01
   1   13    8     7     2    1.4866E+02  1.8184E+00   1.4685E+02  0.000E+00  0.000E+00  0.000E+00  1.03478E+03  2.279E+00  5.526E+01  6.148E-01  9.860E-01
   1   13    7     7     3    1.4685E+02  1.4111E+00   1.4543E+02  0.000E+00  0.000E+00  0.000E+00  1.02969E+03  2.271E+00  5.522E+01  5.585E-01  8.422E-01
   1   13    6     8     1    1.8376E+02  9.0467E-01   1.8285E+02  0.000E+00  0.000E+00  0.000E+00  1.02491E+03  3.037E+00  4.403E+01  4.487E-01  6.720E-01
   1   13    5     8     2    1.8285E+02  1.3361E-01   1.8272E+02  0.000E+00  0.000E+00  0.000E+00  1.01866E+03  3.034E+00  4.399E+01  4.482E-01  9.936E-02
   1   13    4     8     3    1.8272E+02 -2.6444E+00   1.8536E+02  0.000E+00  0.000E+00  0.000E+00  1.01242E+03  3.041E+00  4.410E+01  4.494E+00 -1.961E-01
   1   13    3     8     4    1.8536E+02 -3.7329E+00   1.8909E+02  0.000E+00  0.000E+00  0.000E+00  1.00619E+03  3.061E+00  4.438E+01  4.523E+00 -2.751E-01
   1   13    2     8     5    1.8909E+02 -2.6914E+00   1.9179E+02  0.000E+00  0.000E+00  0.000E+00  9.99956E+02  3.081E+00  4.467E+01  4.552E+00 -1.971E-01
   1   13    1     8     6    1.9179E+02 -2.0702E+00   1.9386E+02  0.000E+00  0.000E+00  0.000E+00  9.94970E+02  3.095E+00  4.488E+01  2.744E+00 -2.515E-01
   1    8    6     9     1    2.2464E+01  0.0000E+00   2.2464E+01  0.000E+00  0.000E+00  0.000E+00  1.08243E+03  3.683E+00  4.000E+00  0.000E+00  2.228E+00
   1    8    5     9     2    2.2464E+01  0.0000E+00   2.2464E+01  0.000E+00  0.000E+00  0.000E+00  1.08193E+03  3.683E+00  4.000E+00  0.000E+00  2.228E+00





UNSATURATED ZONE PACKAGE VOLUMETRIC BUDGET FOR  TIME STEP    30 STRESS PERIOD    7
  ------------------------------------------------------------------------------



     CUMULATIVE VOLUMES      L**3       RATES FOR THIS TIME STEP      L**3/T
     ------------------                 ------------------------

           IN:                                      IN:
           ---                                      ---
        INFILTRATION =   102734455.8358          INFILTRATION =          23.3121

          OUT:                                     OUT:
          ----                                     ----
              UZF ET =   101801708.5471                UZF ET =          23.3175
        UZF RECHARGE =       73224.0000          UZF RECHARGE =       0.0000E+00

            IN - OUT =      859523.2888              IN - OUT =      -5.3759E-03

          STORAGE:                                 STORAGE:
          --------                                 --------
      STORAGE CHANGE =      859735.4091        STORAGE CHANGE =      -5.3760E-03

 PERCENT DISCREPANCY IS DIFFERENCE BETWEEN IN-OUT MINUS CHANGE IN STORAGE
 DIVIDED BY THE AVERAGE OF IN AND OUT TIMES 100

 PERCENT DISCREPANCY =          -0.00     PERCENT DISCREPANCY =           0.00






1
  VOLUMETRIC BUDGET FOR AGRICULTURAL FIELDS AT  END OF TIME STEP   30, STRESS PERIOD   7
  ------------------------------------------------------------------------------

     CUMULATIVE VOLUMES      L**3       RATES FOR THIS TIME STEP      L**3/T
     ------------------                 ------------------------

           IN:                                      IN:
           ---                                      ---
               AG WELLS  =      480208.6250                 AG WELLS  =           0.0000
      DIVERSION SEGMENTS =    88838872.0000        DIVERSION SEGMENTS =          22.4642
       IRRIGATION PONDS  =           0.0000         IRRIGATION PONDS  =           0.0000
           GW IRRIGATION =           0.0000             GW IRRIGATION =           0.0000
           SW IRRIGATION =           0.0000             SW IRRIGATION =           0.0000
        SYSTEM LOSSES GW =           0.0000          SYSTEM LOSSES GW =           0.0000
        SYSTEM LOSSES SW =           0.0000          SYSTEM LOSSES SW =           0.0000

                TOTAL IN =    89319080.0000                  TOTAL IN =          22.4642

          OUT:                                     OUT:
          ----                                     ----
               AG WELLS  =           0.0000                 AG WELLS  =           0.0000
      DIVERSION SEGMENTS =           0.0000        DIVERSION SEGMENTS =           0.0000
       IRRIGATION PONDS  =           0.0000         IRRIGATION PONDS  =           0.0000
           GW IRRIGATION =      480208.6250             GW IRRIGATION =           0.0000
           SW IRRIGATION =    88840648.0000             SW IRRIGATION =          22.4646
        SYSTEM LOSSES GW =           0.0000          SYSTEM LOSSES GW =           0.0000
        SYSTEM LOSSES SW =           0.0000          SYSTEM LOSSES SW =           0.0000

               TOTAL OUT =    89320856.0000                 TOTAL OUT =          22.4646

                IN - OUT =       -1776.0000                  IN - OUT =      -4.4823E-04

     PERCENT DISCREPANCY =          -0.00         PERCENT DISCREPANCY =          -0.00



1
  VOLUMETRIC BUDGET FOR ENTIRE MODEL AT END OF TIME STEP   30, STRESS PERIOD   7
  ------------------------------------------------------------------------------

     CUMULATIVE VOLUMES      L**3       RATES FOR THIS TIME STEP      L**3/T
     ------------------                 ------------------------

           IN:                                      IN:
           ---                                      ---
             STORAGE     =    12401223.0000               STORAGE     =           0.7642
       CONSTANT HEAD     =           0.0000         CONSTANT HEAD     =           0.0000
     HEAD DEP BOUNDS     =     4533349.5000       HEAD DEP BOUNDS     =           0.2858
      STREAM LEAKAGE     =   194409696.0000        STREAM LEAKAGE     =          12.5225
        UZF RECHARGE     =       73223.9531          UZF RECHARGE     =           0.0000
               GW ET     =           0.0000                 GW ET     =           0.0000
     SURFACE LEAKAGE     =           0.0000       SURFACE LEAKAGE     =           0.0000
           AG WELLS      =           0.0000             AG WELLS      =           0.0000

                TOTAL IN =   211417488.0000                  TOTAL IN =          13.5725

          OUT:                                     OUT:
          ----                                     ----
             STORAGE     =    37543288.0000               STORAGE     =           2.0190
       CONSTANT HEAD     =           0.0000         CONSTANT HEAD     =           0.0000
     HEAD DEP BOUNDS     =     4632671.0000       HEAD DEP BOUNDS     =           0.2935
      STREAM LEAKAGE     =   167229280.0000        STREAM LEAKAGE     =          11.1389
        UZF RECHARGE     =           0.0000          UZF RECHARGE     =           0.0000
               GW ET     =     1535264.2500                 GW ET     =           0.1210
     SURFACE LEAKAGE     =           0.0000       SURFACE LEAKAGE     =           0.0000
           AG WELLS      =      480208.6250             AG WELLS      =           0.0000

               TOTAL OUT =   211420720.0000                 TOTAL OUT =          13.5723

                IN - OUT =       -3232.0000                  IN - OUT =       1.8692E-04

     PERCENT DISCREPANCY =          -0.00         PERCENT DISCREPANCY =           0.00






         TIME SUMMARY AT END OF TIME STEP   30 IN STRESS PERIOD    7
                    SECONDS     MINUTES      HOURS       DAYS        YEARS
                    -----------------------------------------------------------
   TIME STEP LENGTH  87667.      1461.1      24.352      1.0147     2.77799E-03
 STRESS PERIOD TIME 2.63000E+06  43833.      730.56      30.440     8.33397E-02
         TOTAL TIME 1.58664E+07 2.64440E+05  4407.3      183.64     0.50278    
1
1
                            STRESS PERIOD NO.    8, LENGTH =   2630000.    
                            -----------------------------------------------

                              NUMBER OF TIME STEPS =    30

                               MULTIPLIER FOR DELT =     1.000

                            INITIAL TIME STEP SIZE =   87666.66    

 REUSING NON-PARAMETER GHB CELLS FROM LAST STRESS PERIOD

      2 GHB CELLS

 REUSING STREAM SEGMENT DATA FROM LAST STRESS PERIOD



            AREAL INFILTRATION RATE
 READING ON UNIT   19 WITH FORMAT: (FREE)              

            1           2           3           4           5           6           7           8           9          10
 ........................................................................................................................
   1   1.0000E-10  2.0000E-10   0.000       0.000       0.000       0.000       0.000       0.000       0.000       0.000    
   2   2.0000E-10  1.0000E-10  2.0000E-10   0.000       0.000      8.0000E-10  8.0000E-10  5.0000E-10   0.000       0.000    
   3    0.000      5.0000E-10  1.0000E-10  1.0000E-10  8.0000E-10  8.0000E-10  5.0000E-10  5.0000E-10   0.000       0.000    
   4   8.0000E-10  5.0000E-10  1.0000E-10  1.0000E-10  1.0000E-10  1.0000E-10  1.0000E-10  1.0000E-10  2.0000E-10   0.000    
   5   8.0000E-10  5.0000E-10  1.0000E-10  1.0000E-10  1.0000E-10  1.0000E-10  1.0000E-10  1.0000E-10  1.0000E-10  1.0000E-10
   6   8.0000E-10  5.0000E-10  5.0000E-10  2.0000E-10  2.0000E-10  1.0000E-10  1.0000E-10  1.0000E-10  1.0000E-10  5.0000E-10
   7   8.0000E-10  5.0000E-10  5.0000E-10  2.0000E-10  2.0000E-10  1.0000E-10  1.0000E-10  2.0000E-10  2.0000E-10   0.000    
   8    0.000      5.0000E-10  5.0000E-10  2.0000E-10  2.0000E-10  1.0000E-10  1.0000E-10  2.0000E-10  5.0000E-10   0.000    
   9    0.000      5.0000E-10  5.0000E-10  2.0000E-10  2.0000E-10  1.0000E-10  1.0000E-10  2.0000E-10  5.0000E-10   0.000    
  10    0.000      5.0000E-10  5.0000E-10  2.0000E-10  2.0000E-10  1.0000E-10  1.0000E-10  2.0000E-10  5.0000E-10  8.0000E-10
  11    0.000      1.0000E-10  1.0000E-10  1.0000E-10  1.0000E-10  1.0000E-10  1.0000E-10  2.0000E-10  5.0000E-10   0.000    
  12   1.0000E-10  1.0000E-10  1.0000E-10  1.0000E-10  1.0000E-10  1.0000E-10  1.0000E-10  1.0000E-10  2.0000E-10   0.000    
  13   1.0000E-10  1.0000E-10  2.0000E-10  2.0000E-10  2.0000E-10  2.0000E-10  2.0000E-10  1.0000E-10  1.0000E-10   0.000    
  14    0.000      2.0000E-10  5.0000E-10  5.0000E-10  5.0000E-10  5.0000E-10  5.0000E-10  2.0000E-10  1.0000E-10   0.000    
  15    0.000       0.000      8.0000E-10  8.0000E-10  8.0000E-10  8.0000E-10   0.000       0.000       0.000       0.000    

                  ET RATE =  4.000000E-07

 USING ET EXTINCTION DEPTH FROM PREVIOUS STRESS PERIOD. CURRENT PERIOD IS:       8

 USING EXTINCTION WATER CONTENT FROM PREVIOUS STRESS PERIOD. CURRENT PERIOD IS:       8

 USING AIR ENTRY PRESSURE FROM PREVIOUS STRESS PERIOD. CURRENT PERIOD IS:       8

 USING ROOT PRESSURE HEAD FROM PREVIOUS STRESS PERIOD. CURRENT PERIOD IS:       8

 USING ROOT ACTIVITY FROM PREVIOUS STRESS PERIOD. CURRENT PERIOD IS:       8

 PROCESSING AG STRESS PERIOD DATA

 READING AG STRESS PERIOD DATA

 READING IRRIGATION SEGMENT

 READING IRRIGATION WELL

 READING SUPPLEMENTAL WELL

 NO IRRPOND OR REUSING IRRPOND DATA FROM LAST STRESS PERIOD

 END PROCESSING AG STRESS PERIOD DATA OPTIONS
 
 SOLVING FOR HEAD 
                                                   Max.-Head-Change                         Max.-Flux-Residual
  Residual-Control   Outer-Iter.   Inner-Iter.     Column Row Layer    Maximum-Head-Change  Column Row Layer    Maximum-Flux-Residual          L2-NORM 
          0                 1           2             2   13     1      -0.1302675943E-01       4   13    1        -0.7755870918E+00      0.1469195603E+01
          0                 2           2             4    7     1      -0.1397180873E+00       5    6    1        -0.7505173778E+01      0.1838286871E+02
          0                 3           2             4    7     1       0.9484818685E-02       5    6    1         0.5253568664E+00      0.1284430523E+01
          0                 4           2             4    7     1      -0.3774103845E-03       5    6    1        -0.2148715250E-01      0.5253871644E-01
          0                 5           1             4    7     1       0.4653632832E-05       5    6    1         0.2723084003E-03      0.6669167144E-03

    ------------------------------------------------
       NWT REQUIRED            5 OUTER ITERATIONS 
       AND A TOTAL OF          9 INNER ITERATIONS.
    ------------------------------------------------

 OUTPUT CONTROL FOR STRESS PERIOD    8   TIME STEP    1
    PRINT BUDGET
    SAVE BUDGET
 UBDSV1 SAVING "         STORAGE" ON UNIT 102 AT TIME STEP 1, STRESS PERIOD 8
 UBDSV2 SAVING "   CONSTANT HEAD" ON UNIT 102 AT TIME STEP 1, STRESS PERIOD 8
 UBDSV1 SAVING "FLOW RIGHT FACE " ON UNIT 102 AT TIME STEP 1, STRESS PERIOD 8
 UBDSV1 SAVING "FLOW FRONT FACE " ON UNIT 102 AT TIME STEP 1, STRESS PERIOD 8

  HEAD DEP BOUNDS   PERIOD    8   STEP     1
 BOUNDARY      1   LAYER   1   ROW    13   COL     1   RATE   -0.293252    
 BOUNDARY      2   LAYER   1   ROW    14   COL     9   RATE    0.285764    



 STREAM LISTING     PERIOD      8   STEP        1

 LAYER ROW COL. STREAM  RCH.  FLOW INTO     FLOW TO   FLOW OUT OF   OVRLND.     DIRECT     STREAM       STREAM     STREAM     STREAM   STREAMBED  STREAMBED
                SEG.NO.  NO.  STRM. RCH.    AQUIFER    STRM. RCH.    RUNOFF     PRECIP       ET          HEAD       DEPTH      WIDTH   CONDCTNC.   GRADIENT

   1    1    1     1     1    5.6250E+01  3.5875E-01   5.5891E+01  0.000E+00  0.000E+00  0.000E+00  1.09453E+03  1.479E+00  1.780E+01  8.010E-02  1.493E+00
   1    2    2     1     2    5.5891E+01  5.5550E-01   5.5336E+01  0.000E+00  0.000E+00  0.000E+00  1.08953E+03  1.473E+00  1.774E+01  1.242E-01  1.491E+00
   1    3    3     1     3    5.5336E+01  4.7368E-01   5.4862E+01  0.000E+00  0.000E+00  0.000E+00  1.08389E+03  1.467E+00  1.767E+01  1.060E-01  1.489E+00
   1    3    4     1     4    5.4862E+01  4.3613E-01   5.4426E+01  0.000E+00  0.000E+00  0.000E+00  1.07887E+03  1.461E+00  1.762E+01  9.777E-02  1.487E+00
   1    4    5     2     1    5.2426E+01  3.8056E-01   5.2046E+01  0.000E+00  0.000E+00  0.000E+00  1.07381E+03  1.879E+00  1.200E+01  7.800E-02  1.626E+00
   1    5    6     2     2    5.2046E+01  2.9230E-01   5.1753E+01  0.000E+00  0.000E+00  0.000E+00  1.06838E+03  1.872E+00  1.200E+01  6.000E-02  1.624E+00
   1    6    6     2     3    5.1753E+01  2.9192E-01   5.1461E+01  0.000E+00  0.000E+00  0.000E+00  1.06366E+03  1.865E+00  1.200E+01  6.000E-02  1.622E+00
   1    7    6     2     4    5.1461E+01  2.9154E-01   5.1170E+01  0.000E+00  0.000E+00  0.000E+00  1.05893E+03  1.859E+00  1.200E+01  6.000E-02  1.620E+00
   1    8    6     2     5    5.1170E+01  2.9116E-01   5.0879E+01  0.000E+00  0.000E+00  0.000E+00  1.05421E+03  1.853E+00  1.200E+01  6.000E-02  1.618E+00
   1    3    5     3     1    2.0000E+00  2.8252E-01   1.7175E+00  0.000E+00  0.000E+00  0.000E+00  1.07555E+03  1.909E+00  9.636E+00  7.227E-02  1.955E+00
   1    3    6     3     2    1.7175E+00  2.4905E-01   1.4684E+00  0.000E+00  0.000E+00  0.000E+00  1.07264E+03  1.727E+00  8.909E+00  6.682E-02  1.864E+00
   1    3    7     3     3    1.4684E+00  1.9718E-01   1.2712E+00  0.000E+00  0.000E+00  0.000E+00  1.06987E+03  1.555E+00  8.218E+00  5.547E-02  1.777E+00
   1    4    8     3     4    1.2712E+00  2.2567E-01   1.0456E+00  0.000E+00  0.000E+00  0.000E+00  1.06682E+03  1.364E+00  7.455E+00  6.709E-02  1.682E+00
   1    5    8     3     5    1.0456E+00  1.5790E-01   8.8768E-01  0.000E+00  0.000E+00  0.000E+00  1.06362E+03  1.164E+00  6.655E+00  4.991E-02  1.582E+00
   1    6    8     3     6    8.8768E-01  5.5980E-02   8.3170E-01  0.000E+00  0.000E+00  0.000E+00  1.06158E+03  1.036E+00  6.145E+00  1.844E-02  1.518E+00
   1    5   10     4     1    1.0000E+01  9.0919E-02   9.9091E+00  0.000E+00  0.000E+00  0.000E+00  1.07836E+03  6.368E-01  1.000E+01  2.500E-02  1.212E+00
   1    5    9     4     2    9.9091E+00  1.8158E-01   9.7275E+00  0.000E+00  0.000E+00  0.000E+00  1.07154E+03  6.315E-01  1.000E+01  5.000E-02  1.211E+00
   1    6    8     4     3    9.7275E+00  1.2689E-01   9.6006E+00  0.000E+00  0.000E+00  0.000E+00  1.06381E+03  6.256E-01  1.000E+01  3.500E-02  1.209E+00
   1    6    8     5     1    1.0432E+01  2.2686E-01   1.0205E+01  0.000E+00  0.000E+00  0.000E+00  1.05868E+03  6.790E-01  1.542E+01  6.166E-02  1.226E+00
   1    7    7     5     2    1.0205E+01  2.7894E-01   9.9265E+00  0.000E+00  0.000E+00  0.000E+00  1.05417E+03  6.732E-01  1.519E+01  7.594E-02  1.224E+00
   1    8    7     5     3    9.9265E+00  1.9221E-01   9.7343E+00  0.000E+00  0.000E+00  0.000E+00  1.04992E+03  6.676E-01  1.497E+01  5.241E-02  1.223E+00
   1    8    6     5     4    9.7343E+00  1.3577E-01   9.5985E+00  0.000E+00  0.000E+00  0.000E+00  1.04691E+03  6.637E-01  1.482E+01  3.706E-02  1.221E+00
   1    9    6     6     1    9.5985E+00  2.2097E-01   9.3776E+00  0.000E+00  0.000E+00  0.000E+00  1.04341E+03  6.828E-01  1.200E+01  6.000E-02  1.228E+00
   1   10    7     6     2    9.3776E+00  2.2039E-01   9.1572E+00  0.000E+00  0.000E+00  0.000E+00  1.03885E+03  6.732E-01  1.200E+01  6.000E-02  1.224E+00
   1   11    7     6     3    9.1572E+00  2.1981E-01   8.9374E+00  0.000E+00  0.000E+00  0.000E+00  1.03430E+03  6.636E-01  1.200E+01  6.000E-02  1.221E+00
   1   12    7     6     4    8.9374E+00  2.1923E-01   8.7181E+00  0.000E+00  0.000E+00  0.000E+00  1.02974E+03  6.539E-01  1.200E+01  6.000E-02  1.218E+00
   1   13    7     6     5    8.7181E+00 -1.4393E-01   8.8621E+00  0.000E+00  0.000E+00  0.000E+00  1.02656E+03  6.522E-01  1.200E+01  2.400E-01 -1.999E-01
   1   14    9     7     1    1.5000E+02  1.3359E+00   1.4866E+02  0.000E+00  0.000E+00  0.000E+00  1.03987E+03  2.288E+00  5.529E+01  5.593E-01  7.962E-01
   1   13    8     7     2    1.4866E+02  1.8183E+00   1.4685E+02  0.000E+00  0.000E+00  0.000E+00  1.03478E+03  2.279E+00  5.526E+01  6.148E-01  9.859E-01
   1   13    7     7     3    1.4685E+02  1.4124E+00   1.4543E+02  0.000E+00  0.000E+00  0.000E+00  1.02969E+03  2.271E+00  5.522E+01  5.585E-01  8.430E-01
   1   13    6     8     1    1.5430E+02  7.6748E-01   1.5353E+02  0.000E+00  0.000E+00  0.000E+00  1.02472E+03  2.844E+00  4.124E+01  4.203E-01  6.087E-01
   1   13    5     8     2    1.5353E+02  4.5294E-02   1.5348E+02  0.000E+00  0.000E+00  0.000E+00  1.01847E+03  2.841E+00  4.120E+01  4.198E-01  3.596E-02
   1   13    4     8     3    1.5348E+02 -3.2312E+00   1.5671E+02  0.000E+00  0.000E+00  0.000E+00  1.01223E+03  2.852E+00  4.136E+01  4.215E+00 -2.556E-01
   1   13    3     8     4    1.5671E+02 -4.2480E+00   1.6096E+02  0.000E+00  0.000E+00  0.000E+00  1.00600E+03  2.878E+00  4.173E+01  4.252E+00 -3.330E-01
   1   13    2     8     5    1.6096E+02 -3.2465E+00   1.6421E+02  0.000E+00  0.000E+00  0.000E+00  9.99778E+02  2.903E+00  4.210E+01  4.290E+00 -2.523E-01
   1   13    1     8     6    1.6421E+02 -2.3837E+00   1.6659E+02  0.000E+00  0.000E+00  0.000E+00  9.94797E+02  2.922E+00  4.237E+01  2.591E+00 -3.067E-01
   1    8    6     9     1    5.0879E+01  0.0000E+00   5.0879E+01  0.000E+00  0.000E+00  0.000E+00  1.08476E+03  6.014E+00  4.000E+00  0.000E+00  3.005E+00
   1    8    5     9     2    5.0879E+01  0.0000E+00   5.0879E+01  0.000E+00  0.000E+00  0.000E+00  1.08426E+03  6.014E+00  4.000E+00  0.000E+00  3.005E+00



 UBDSV3 SAVING "           GW ET" ON UNIT  61 AT TIME STEP 1, STRESS PERIOD 8
 UBDSV3 SAVING "    UZF RECHARGE" ON UNIT  61 AT TIME STEP 1, STRESS PERIOD 8
 UBDSV3 SAVING " SURFACE LEAKAGE" ON UNIT  61 AT TIME STEP 1, STRESS PERIOD 8
 UBDSV3 SAVING "       HORT+DUNN" ON UNIT  61 AT TIME STEP 1, STRESS PERIOD 8
 UBDSV3 SAVING "  STORAGE CHANGE" ON UNIT  61 AT TIME STEP 1, STRESS PERIOD 8


UNSATURATED ZONE PACKAGE VOLUMETRIC BUDGET FOR  TIME STEP     1 STRESS PERIOD    8
  ------------------------------------------------------------------------------



     CUMULATIVE VOLUMES      L**3       RATES FOR THIS TIME STEP      L**3/T
     ------------------                 ------------------------

           IN:                                      IN:
           ---                                      ---
        INFILTRATION =   111215130.0817          INFILTRATION =          96.7377

          OUT:                                     OUT:
          ----                                     ----
              UZF ET =   107133375.7929                UZF ET =          60.8175
        UZF RECHARGE =       73224.0000          UZF RECHARGE =       0.0000E+00

            IN - OUT =     4008530.2888              IN - OUT =          35.9202

          STORAGE:                                 STORAGE:
          --------                                 --------
      STORAGE CHANGE =     4008742.4250        STORAGE CHANGE =          35.9202

 PERCENT DISCREPANCY IS DIFFERENCE BETWEEN IN-OUT MINUS CHANGE IN STORAGE
 DIVIDED BY THE AVERAGE OF IN AND OUT TIMES 100

 PERCENT DISCREPANCY =          -0.00     PERCENT DISCREPANCY =           0.00






 

            AG WELLS      PERIOD    8   STEP   1
 AG WELL      1   LAYER   1   ROW     6   COL     4   RATE    -7.50176    
 AG WELL      2   LAYER   1   ROW     6   COL     5   RATE    -7.50176    
 AG WELL      3   LAYER   1   ROW     7   COL     4   RATE    -7.50176    
 AG WELL      4   LAYER   1   ROW     7   COL     5   RATE    -7.50176    
 AG WELL      5   LAYER   1   ROW     8   COL     4   RATE    -7.50176    
 AG WELL      6   LAYER   1   ROW     8   COL     5   RATE    -7.50176    
 
 

   DIVERSION SEGMENTS     PERIOD    8   STEP   1
 SEGMENT      9   RATE     50.8787    
 
 

        SW IRRIGATION     PERIOD    8   STEP   1
 SEGMENT      9   ROW     6   COL     4   RATE     8.47995    
 SEGMENT      9   ROW     6   COL     5   RATE     8.47995    
 SEGMENT      9   ROW     7   COL     4   RATE     8.47995    
 SEGMENT      9   ROW     7   COL     5   RATE     8.47995    
 SEGMENT      9   ROW     8   COL     4   RATE     8.47995    
 SEGMENT      9   ROW     8   COL     5   RATE     8.47995    
 
 

        GW IRRIGATION     PERIOD    8   STEP   1
 AG WELL      1   ROW     6   COL     4   RATE     7.50176    
 AG WELL      2   ROW     6   COL     5   RATE     7.50176    
 AG WELL      3   ROW     7   COL     4   RATE     7.50176    
 AG WELL      4   ROW     7   COL     5   RATE     7.50176    
 AG WELL      5   ROW     8   COL     4   RATE     7.50176    
 AG WELL      6   ROW     8   COL     5   RATE     7.50176    
 
1
  VOLUMETRIC BUDGET FOR AGRICULTURAL FIELDS AT  END OF TIME STEP    1, STRESS PERIOD   8
  ------------------------------------------------------------------------------

     CUMULATIVE VOLUMES      L**3       RATES FOR THIS TIME STEP      L**3/T
     ------------------                 ------------------------

           IN:                                      IN:
           ---                                      ---
               AG WELLS  =     4426134.0000                 AG WELLS  =          45.0106
      DIVERSION SEGMENTS =    93299232.0000        DIVERSION SEGMENTS =          50.8787
       IRRIGATION PONDS  =           0.0000         IRRIGATION PONDS  =           0.0000
           GW IRRIGATION =           0.0000             GW IRRIGATION =           0.0000
           SW IRRIGATION =           0.0000             SW IRRIGATION =           0.0000
        SYSTEM LOSSES GW =           0.0000          SYSTEM LOSSES GW =           0.0000
        SYSTEM LOSSES SW =           0.0000          SYSTEM LOSSES SW =           0.0000

                TOTAL IN =    97725368.0000                  TOTAL IN =          95.8892

          OUT:                                     OUT:
          ----                                     ----
               AG WELLS  =           0.0000                 AG WELLS  =           0.0000
      DIVERSION SEGMENTS =           0.0000        DIVERSION SEGMENTS =           0.0000
       IRRIGATION PONDS  =           0.0000         IRRIGATION PONDS  =           0.0000
           GW IRRIGATION =     4426134.0000             GW IRRIGATION =          45.0106
           SW IRRIGATION =    93301096.0000             SW IRRIGATION =          50.8797
        SYSTEM LOSSES GW =           0.0000          SYSTEM LOSSES GW =           0.0000
        SYSTEM LOSSES SW =           0.0000          SYSTEM LOSSES SW =           0.0000

               TOTAL OUT =    97727232.0000                 TOTAL OUT =          95.8902

                IN - OUT =       -1864.0000                  IN - OUT =      -1.0147E-03

     PERCENT DISCREPANCY =          -0.00         PERCENT DISCREPANCY =          -0.00



1
  VOLUMETRIC BUDGET FOR ENTIRE MODEL AT END OF TIME STEP    1, STRESS PERIOD   8
  ------------------------------------------------------------------------------

     CUMULATIVE VOLUMES      L**3       RATES FOR THIS TIME STEP      L**3/T
     ------------------                 ------------------------

           IN:                                      IN:
           ---                                      ---
             STORAGE     =    16597819.0000               STORAGE     =          47.8699
       CONSTANT HEAD     =           0.0000         CONSTANT HEAD     =           0.0000
     HEAD DEP BOUNDS     =     4558401.5000       HEAD DEP BOUNDS     =           0.2858
      STREAM LEAKAGE     =   195464576.0000        STREAM LEAKAGE     =          12.0328
        UZF RECHARGE     =       73223.9531          UZF RECHARGE     =           0.0000
               GW ET     =           0.0000                 GW ET     =           0.0000
     SURFACE LEAKAGE     =           0.0000       SURFACE LEAKAGE     =           0.0000
           AG WELLS      =           0.0000             AG WELLS      =           0.0000

                TOTAL IN =   216694016.0000                  TOTAL IN =          60.1885

          OUT:                                     OUT:
          ----                                     ----
             STORAGE     =    37682944.0000               STORAGE     =           1.5930
       CONSTANT HEAD     =           0.0000         CONSTANT HEAD     =           0.0000
     HEAD DEP BOUNDS     =     4658379.5000       HEAD DEP BOUNDS     =           0.2933
      STREAM LEAKAGE     =   168391168.0000        STREAM LEAKAGE     =          13.2534
        UZF RECHARGE     =           0.0000          UZF RECHARGE     =           0.0000
               GW ET     =     1538617.0000                 GW ET     =       3.8244E-02
     SURFACE LEAKAGE     =           0.0000       SURFACE LEAKAGE     =           0.0000
           AG WELLS      =     4426134.0000             AG WELLS      =          45.0106

               TOTAL OUT =   216697248.0000                 TOTAL OUT =          60.1885

                IN - OUT =       -3232.0000                  IN - OUT =       3.0518E-05

     PERCENT DISCREPANCY =          -0.00         PERCENT DISCREPANCY =           0.00






         TIME SUMMARY AT END OF TIME STEP    1 IN STRESS PERIOD    8
                    SECONDS     MINUTES      HOURS       DAYS        YEARS
                    -----------------------------------------------------------
   TIME STEP LENGTH  87667.      1461.1      24.352      1.0147     2.77799E-03
 STRESS PERIOD TIME  87667.      1461.1      24.352      1.0147     2.77799E-03
         TOTAL TIME 1.59541E+07 2.65901E+05  4431.7      184.65     0.50555    
1
 
 SOLVING FOR HEAD 
                                                   Max.-Head-Change                         Max.-Flux-Residual
  Residual-Control   Outer-Iter.   Inner-Iter.     Column Row Layer    Maximum-Head-Change  Column Row Layer    Maximum-Flux-Residual          L2-NORM 
          0                 1           2             4   13     1       0.8407656435E-02       4   13    1         0.4855749685E+00      0.1032063354E+01
          0                 2           2             7   13     1      -0.3439641213E-02       7   13    1        -0.1907878444E+00      0.2281737292E+00
          0                 3           2             4    7     1      -0.1021932455E+00       4    7    1        -0.5485536353E+01      0.1349395733E+02
          0                 4           2             4    7     1       0.1030234493E+00       4    7    1         0.5684642222E+01      0.1392482004E+02
          0                 5           2             4    7     1      -0.9859762306E-01       4    8    1        -0.5594801762E+01      0.1371341592E+02
          0                 6           2             4    7     1       0.4939520901E-01       5    6    1         0.2879419529E+01      0.7052913969E+01
          0                 7           2             4    7     1       0.7256971078E-03       4    7    1         0.4231449234E-01      0.1032174647E+00
          0                 8           1             4    7     1       0.1065911278E-04       4    7    1         0.6213991051E-03      0.1522620495E-02

    ------------------------------------------------
       NWT REQUIRED            8 OUTER ITERATIONS 
       AND A TOTAL OF         15 INNER ITERATIONS.
    ------------------------------------------------

 NO OUTPUT CONTROL FOR STRESS PERIOD    8   TIME STEP    2
 
 SOLVING FOR HEAD 
                                                   Max.-Head-Change                         Max.-Flux-Residual
  Residual-Control   Outer-Iter.   Inner-Iter.     Column Row Layer    Maximum-Head-Change  Column Row Layer    Maximum-Flux-Residual          L2-NORM 
          0                 1           2             4   13     1       0.9472558574E-02       4   13    1         0.5458559012E+00      0.1191149873E+01
          0                 2           2             7   13     1      -0.3455633157E-02       7   13    1        -0.1916725876E+00      0.2386934177E+00
          0                 3           2             4    7     1      -0.1859314803E+00       4    7    1        -0.9980423664E+01      0.2452046026E+02
          0                 4           2             4    7     1       0.1663424605E+00       5    7    1         0.9178505845E+01      0.2248185194E+02
          0                 5           2             4    7     1      -0.6620821546E-02       4    8    1        -0.3760383427E+00      0.9203468505E+00
          0                 6           1             4    7     1       0.8169792440E-04       4    8    1         0.4769485873E-02      0.1168867450E-01

    ------------------------------------------------
       NWT REQUIRED            6 OUTER ITERATIONS 
       AND A TOTAL OF         11 INNER ITERATIONS.
    ------------------------------------------------

 NO OUTPUT CONTROL FOR STRESS PERIOD    8   TIME STEP    3
 
 SOLVING FOR HEAD 
                                                   Max.-Head-Change                         Max.-Flux-Residual
  Residual-Control   Outer-Iter.   Inner-Iter.     Column Row Layer    Maximum-Head-Change  Column Row Layer    Maximum-Flux-Residual          L2-NORM 
          0                 1           2             4   13     1       0.1041353277E-01       4   13    1         0.6003397113E+00      0.1288126252E+01
          0                 2           2             7   13     1      -0.3471131215E-02       7   13    1        -0.1925299841E+00      0.2268584978E+00
          0                 3           2             4    7     1      -0.1859691114E+00       4    7    1        -0.9982441702E+01      0.2452578868E+02
          0                 4           2             4    7     1       0.1663449184E+00       4    7    1         0.9178643678E+01      0.2248146202E+02
          0                 5           2             4    7     1      -0.6620817977E-02       5    8    1        -0.3756663561E+00      0.9200262614E+00
          0                 6           1             4    7     1       0.8169788519E-04       5    8    1         0.4765637849E-02      0.1167709213E-01

    ------------------------------------------------
       NWT REQUIRED            6 OUTER ITERATIONS 
       AND A TOTAL OF         11 INNER ITERATIONS.
    ------------------------------------------------

 NO OUTPUT CONTROL FOR STRESS PERIOD    8   TIME STEP    4
 
 SOLVING FOR HEAD 
                                                   Max.-Head-Change                         Max.-Flux-Residual
  Residual-Control   Outer-Iter.   Inner-Iter.     Column Row Layer    Maximum-Head-Change  Column Row Layer    Maximum-Flux-Residual          L2-NORM 
          0                 1           2             4   13     1       0.1126467423E-01       4   13    1         0.6496041565E+00      0.1379898672E+01
          0                 2           2             7   13     1      -0.3486139873E-02       7   13    1        -0.1933603109E+00      0.2324171856E+00
          0                 3           2             4    7     1      -0.1859710928E+00       4    7    1        -0.9982469290E+01      0.2452610314E+02
          0                 4           2             4    7     1       0.1663463629E+00       4    7    1         0.9178645647E+01      0.2248369221E+02
          0                 5           2             4    7     1      -0.6620875024E-02       5    8    1        -0.3756661262E+00      0.9201169464E+00
          0                 6           1             4    7     1       0.8169858977E-04       5    8    1         0.4765634947E-02      0.1167819558E-01

    ------------------------------------------------
       NWT REQUIRED            6 OUTER ITERATIONS 
       AND A TOTAL OF         11 INNER ITERATIONS.
    ------------------------------------------------

 OUTPUT CONTROL FOR STRESS PERIOD    8   TIME STEP    5
    PRINT BUDGET
    SAVE BUDGET
 UBDSV1 SAVING "         STORAGE" ON UNIT 102 AT TIME STEP 5, STRESS PERIOD 8
 UBDSV2 SAVING "   CONSTANT HEAD" ON UNIT 102 AT TIME STEP 5, STRESS PERIOD 8
 UBDSV1 SAVING "FLOW RIGHT FACE " ON UNIT 102 AT TIME STEP 5, STRESS PERIOD 8
 UBDSV1 SAVING "FLOW FRONT FACE " ON UNIT 102 AT TIME STEP 5, STRESS PERIOD 8

  HEAD DEP BOUNDS   PERIOD    8   STEP     5
 BOUNDARY      1   LAYER   1   ROW    13   COL     1   RATE   -0.292243    
 BOUNDARY      2   LAYER   1   ROW    14   COL     9   RATE    0.285764    



 STREAM LISTING     PERIOD      8   STEP        5

 LAYER ROW COL. STREAM  RCH.  FLOW INTO     FLOW TO   FLOW OUT OF   OVRLND.     DIRECT     STREAM       STREAM     STREAM     STREAM   STREAMBED  STREAMBED
                SEG.NO.  NO.  STRM. RCH.    AQUIFER    STRM. RCH.    RUNOFF     PRECIP       ET          HEAD       DEPTH      WIDTH   CONDCTNC.   GRADIENT

   1    1    1     1     1    5.6250E+01  3.5875E-01   5.5891E+01  0.000E+00  0.000E+00  0.000E+00  1.09453E+03  1.479E+00  1.780E+01  8.010E-02  1.493E+00
   1    2    2     1     2    5.5891E+01  5.5550E-01   5.5336E+01  0.000E+00  0.000E+00  0.000E+00  1.08953E+03  1.473E+00  1.774E+01  1.242E-01  1.491E+00
   1    3    3     1     3    5.5336E+01  4.7368E-01   5.4862E+01  0.000E+00  0.000E+00  0.000E+00  1.08389E+03  1.467E+00  1.767E+01  1.060E-01  1.489E+00
   1    3    4     1     4    5.4862E+01  4.3613E-01   5.4426E+01  0.000E+00  0.000E+00  0.000E+00  1.07887E+03  1.461E+00  1.762E+01  9.777E-02  1.487E+00
   1    4    5     2     1    5.2426E+01  3.8056E-01   5.2046E+01  0.000E+00  0.000E+00  0.000E+00  1.07381E+03  1.879E+00  1.200E+01  7.800E-02  1.626E+00
   1    5    6     2     2    5.2046E+01  2.9230E-01   5.1753E+01  0.000E+00  0.000E+00  0.000E+00  1.06838E+03  1.872E+00  1.200E+01  6.000E-02  1.624E+00
   1    6    6     2     3    5.1753E+01  2.9192E-01   5.1461E+01  0.000E+00  0.000E+00  0.000E+00  1.06366E+03  1.865E+00  1.200E+01  6.000E-02  1.622E+00
   1    7    6     2     4    5.1461E+01  2.9154E-01   5.1170E+01  0.000E+00  0.000E+00  0.000E+00  1.05893E+03  1.859E+00  1.200E+01  6.000E-02  1.620E+00
   1    8    6     2     5    5.1170E+01  2.9116E-01   5.0879E+01  0.000E+00  0.000E+00  0.000E+00  1.05421E+03  1.853E+00  1.200E+01  6.000E-02  1.618E+00
   1    3    5     3     1    2.0000E+00  2.8252E-01   1.7175E+00  0.000E+00  0.000E+00  0.000E+00  1.07555E+03  1.909E+00  9.636E+00  7.227E-02  1.955E+00
   1    3    6     3     2    1.7175E+00  2.4905E-01   1.4684E+00  0.000E+00  0.000E+00  0.000E+00  1.07264E+03  1.727E+00  8.909E+00  6.682E-02  1.864E+00
   1    3    7     3     3    1.4684E+00  1.9718E-01   1.2712E+00  0.000E+00  0.000E+00  0.000E+00  1.06987E+03  1.555E+00  8.218E+00  5.547E-02  1.777E+00
   1    4    8     3     4    1.2712E+00  2.2567E-01   1.0456E+00  0.000E+00  0.000E+00  0.000E+00  1.06682E+03  1.364E+00  7.455E+00  6.709E-02  1.682E+00
   1    5    8     3     5    1.0456E+00  1.5790E-01   8.8768E-01  0.000E+00  0.000E+00  0.000E+00  1.06362E+03  1.164E+00  6.655E+00  4.991E-02  1.582E+00
   1    6    8     3     6    8.8768E-01  5.5980E-02   8.3170E-01  0.000E+00  0.000E+00  0.000E+00  1.06158E+03  1.036E+00  6.145E+00  1.844E-02  1.518E+00
   1    5   10     4     1    1.0000E+01  9.0919E-02   9.9091E+00  0.000E+00  0.000E+00  0.000E+00  1.07836E+03  6.368E-01  1.000E+01  2.500E-02  1.212E+00
   1    5    9     4     2    9.9091E+00  1.8158E-01   9.7275E+00  0.000E+00  0.000E+00  0.000E+00  1.07154E+03  6.315E-01  1.000E+01  5.000E-02  1.211E+00
   1    6    8     4     3    9.7275E+00  1.2689E-01   9.6006E+00  0.000E+00  0.000E+00  0.000E+00  1.06381E+03  6.256E-01  1.000E+01  3.500E-02  1.209E+00
   1    6    8     5     1    1.0432E+01  2.2686E-01   1.0205E+01  0.000E+00  0.000E+00  0.000E+00  1.05868E+03  6.790E-01  1.542E+01  6.166E-02  1.226E+00
   1    7    7     5     2    1.0205E+01  2.7894E-01   9.9265E+00  0.000E+00  0.000E+00  0.000E+00  1.05417E+03  6.732E-01  1.519E+01  7.594E-02  1.224E+00
   1    8    7     5     3    9.9265E+00  1.9221E-01   9.7343E+00  0.000E+00  0.000E+00  0.000E+00  1.04992E+03  6.676E-01  1.497E+01  5.241E-02  1.223E+00
   1    8    6     5     4    9.7343E+00  1.3577E-01   9.5985E+00  0.000E+00  0.000E+00  0.000E+00  1.04691E+03  6.637E-01  1.482E+01  3.706E-02  1.221E+00
   1    9    6     6     1    9.5985E+00  2.2097E-01   9.3776E+00  0.000E+00  0.000E+00  0.000E+00  1.04341E+03  6.828E-01  1.200E+01  6.000E-02  1.228E+00
   1   10    7     6     2    9.3776E+00  2.2039E-01   9.1572E+00  0.000E+00  0.000E+00  0.000E+00  1.03885E+03  6.732E-01  1.200E+01  6.000E-02  1.224E+00
   1   11    7     6     3    9.1572E+00  2.1981E-01   8.9374E+00  0.000E+00  0.000E+00  0.000E+00  1.03430E+03  6.636E-01  1.200E+01  6.000E-02  1.221E+00
   1   12    7     6     4    8.9374E+00  2.1923E-01   8.7181E+00  0.000E+00  0.000E+00  0.000E+00  1.02974E+03  6.539E-01  1.200E+01  6.000E-02  1.218E+00
   1   13    7     6     5    8.7181E+00 -1.4180E-01   8.8599E+00  0.000E+00  0.000E+00  0.000E+00  1.02656E+03  6.521E-01  1.200E+01  2.400E-01 -1.969E-01
   1   14    9     7     1    1.5000E+02  1.3359E+00   1.4866E+02  0.000E+00  0.000E+00  0.000E+00  1.03987E+03  2.288E+00  5.529E+01  5.593E-01  7.962E-01
   1   13    8     7     2    1.4866E+02  1.8182E+00   1.4685E+02  0.000E+00  0.000E+00  0.000E+00  1.03478E+03  2.279E+00  5.526E+01  6.148E-01  9.858E-01
   1   13    7     7     3    1.4685E+02  1.4174E+00   1.4543E+02  0.000E+00  0.000E+00  0.000E+00  1.02969E+03  2.271E+00  5.522E+01  5.585E-01  8.460E-01
   1   13    6     8     1    1.5429E+02  7.7179E-01   1.5352E+02  0.000E+00  0.000E+00  0.000E+00  1.02472E+03  2.844E+00  4.124E+01  4.202E-01  6.122E-01
   1   13    5     8     2    1.5352E+02  4.8836E-02   1.5347E+02  0.000E+00  0.000E+00  0.000E+00  1.01847E+03  2.841E+00  4.120E+01  4.198E-01  3.878E-02
   1   13    4     8     3    1.5347E+02 -3.0889E+00   1.5656E+02  0.000E+00  0.000E+00  0.000E+00  1.01223E+03  2.852E+00  4.135E+01  4.214E+00 -2.444E-01
   1   13    3     8     4    1.5656E+02 -4.1284E+00   1.6069E+02  0.000E+00  0.000E+00  0.000E+00  1.00600E+03  2.876E+00  4.171E+01  4.250E+00 -3.238E-01
   1   13    2     8     5    1.6069E+02 -3.0857E+00   1.6377E+02  0.000E+00  0.000E+00  0.000E+00  9.99776E+02  2.901E+00  4.206E+01  4.286E+00 -2.400E-01
   1   13    1     8     6    1.6377E+02 -2.3205E+00   1.6609E+02  0.000E+00  0.000E+00  0.000E+00  9.94794E+02  2.919E+00  4.232E+01  2.588E+00 -2.989E-01
   1    8    6     9     1    5.0879E+01  0.0000E+00   5.0879E+01  0.000E+00  0.000E+00  0.000E+00  1.08476E+03  6.014E+00  4.000E+00  0.000E+00  3.005E+00
   1    8    5     9     2    5.0879E+01  0.0000E+00   5.0879E+01  0.000E+00  0.000E+00  0.000E+00  1.08426E+03  6.014E+00  4.000E+00  0.000E+00  3.005E+00



 UBDSV3 SAVING "           GW ET" ON UNIT  61 AT TIME STEP 5, STRESS PERIOD 8
 UBDSV3 SAVING "    UZF RECHARGE" ON UNIT  61 AT TIME STEP 5, STRESS PERIOD 8
 UBDSV3 SAVING " SURFACE LEAKAGE" ON UNIT  61 AT TIME STEP 5, STRESS PERIOD 8
 UBDSV3 SAVING "       HORT+DUNN" ON UNIT  61 AT TIME STEP 5, STRESS PERIOD 8
 UBDSV3 SAVING "  STORAGE CHANGE" ON UNIT  61 AT TIME STEP 5, STRESS PERIOD 8


UNSATURATED ZONE PACKAGE VOLUMETRIC BUDGET FOR  TIME STEP     5 STRESS PERIOD    8
  ------------------------------------------------------------------------------



     CUMULATIVE VOLUMES      L**3       RATES FOR THIS TIME STEP      L**3/T
     ------------------                 ------------------------

           IN:                                      IN:
           ---                                      ---
        INFILTRATION =   133164655.6902          INFILTRATION =          60.7476

          OUT:                                     OUT:
          ----                                     ----
              UZF ET =   128460044.7765                UZF ET =          60.8175
        UZF RECHARGE =       73224.0000          UZF RECHARGE =       0.0000E+00

            IN - OUT =     4631386.9138              IN - OUT =      -6.9878E-02

          STORAGE:                                 STORAGE:
          --------                                 --------
      STORAGE CHANGE =     4631598.2173        STORAGE CHANGE =      -6.9875E-02

 PERCENT DISCREPANCY IS DIFFERENCE BETWEEN IN-OUT MINUS CHANGE IN STORAGE
 DIVIDED BY THE AVERAGE OF IN AND OUT TIMES 100

 PERCENT DISCREPANCY =          -0.00     PERCENT DISCREPANCY =          -0.00






 

            AG WELLS      PERIOD    8   STEP   5
 AG WELL      1   LAYER   1   ROW     6   COL     4   RATE    -1.50341    
 AG WELL      2   LAYER   1   ROW     6   COL     5   RATE    -1.50341    
 AG WELL      3   LAYER   1   ROW     7   COL     4   RATE    -1.50341    
 AG WELL      4   LAYER   1   ROW     7   COL     5   RATE    -1.50341    
 AG WELL      5   LAYER   1   ROW     8   COL     4   RATE    -1.50341    
 AG WELL      6   LAYER   1   ROW     8   COL     5   RATE    -1.50341    
 
 

   DIVERSION SEGMENTS     PERIOD    8   STEP   5
 SEGMENT      9   RATE     50.8787    
 
 

        SW IRRIGATION     PERIOD    8   STEP   5
 SEGMENT      9   ROW     6   COL     4   RATE     8.47995    
 SEGMENT      9   ROW     6   COL     5   RATE     8.47995    
 SEGMENT      9   ROW     7   COL     4   RATE     8.47995    
 SEGMENT      9   ROW     7   COL     5   RATE     8.47995    
 SEGMENT      9   ROW     8   COL     4   RATE     8.47995    
 SEGMENT      9   ROW     8   COL     5   RATE     8.47995    
 
 

        GW IRRIGATION     PERIOD    8   STEP   5
 AG WELL      1   ROW     6   COL     4   RATE     1.50341    
 AG WELL      2   ROW     6   COL     5   RATE     1.50341    
 AG WELL      3   ROW     7   COL     4   RATE     1.50341    
 AG WELL      4   ROW     7   COL     5   RATE     1.50341    
 AG WELL      5   ROW     8   COL     4   RATE     1.50341    
 AG WELL      6   ROW     8   COL     5   RATE     1.50341    
 
1
  VOLUMETRIC BUDGET FOR AGRICULTURAL FIELDS AT  END OF TIME STEP    5, STRESS PERIOD   8
  ------------------------------------------------------------------------------

     CUMULATIVE VOLUMES      L**3       RATES FOR THIS TIME STEP      L**3/T
     ------------------                 ------------------------

           IN:                                      IN:
           ---                                      ---
               AG WELLS  =     8236664.5000                 AG WELLS  =           9.0205
      DIVERSION SEGMENTS =   111140672.0000        DIVERSION SEGMENTS =          50.8787
       IRRIGATION PONDS  =           0.0000         IRRIGATION PONDS  =           0.0000
           GW IRRIGATION =           0.0000             GW IRRIGATION =           0.0000
           SW IRRIGATION =           0.0000             SW IRRIGATION =           0.0000
        SYSTEM LOSSES GW =           0.0000          SYSTEM LOSSES GW =           0.0000
        SYSTEM LOSSES SW =           0.0000          SYSTEM LOSSES SW =           0.0000

                TOTAL IN =   119377336.0000                  TOTAL IN =          59.8991

          OUT:                                     OUT:
          ----                                     ----
               AG WELLS  =           0.0000                 AG WELLS  =           0.0000
      DIVERSION SEGMENTS =           0.0000        DIVERSION SEGMENTS =           0.0000
       IRRIGATION PONDS  =           0.0000         IRRIGATION PONDS  =           0.0000
           GW IRRIGATION =     8236664.5000             GW IRRIGATION =           9.0205
           SW IRRIGATION =   111142888.0000             SW IRRIGATION =          50.8797
        SYSTEM LOSSES GW =           0.0000          SYSTEM LOSSES GW =           0.0000
        SYSTEM LOSSES SW =           0.0000          SYSTEM LOSSES SW =           0.0000

               TOTAL OUT =   119379552.0000                 TOTAL OUT =          59.9001

                IN - OUT =       -2216.0000                  IN - OUT =      -1.0147E-03

     PERCENT DISCREPANCY =          -0.00         PERCENT DISCREPANCY =          -0.00



1
  VOLUMETRIC BUDGET FOR ENTIRE MODEL AT END OF TIME STEP    5, STRESS PERIOD   8
  ------------------------------------------------------------------------------

     CUMULATIVE VOLUMES      L**3       RATES FOR THIS TIME STEP      L**3/T
     ------------------                 ------------------------

           IN:                                      IN:
           ---                                      ---
             STORAGE     =    21253960.0000               STORAGE     =          11.2032
       CONSTANT HEAD     =           0.0000         CONSTANT HEAD     =           0.0000
     HEAD DEP BOUNDS     =     4658609.5000       HEAD DEP BOUNDS     =           0.2858
      STREAM LEAKAGE     =   199686880.0000        STREAM LEAKAGE     =          12.0455
        UZF RECHARGE     =       73223.9531          UZF RECHARGE     =           0.0000
               GW ET     =           0.0000                 GW ET     =           0.0000
     SURFACE LEAKAGE     =           0.0000       SURFACE LEAKAGE     =           0.0000
           AG WELLS      =           0.0000             AG WELLS      =           0.0000

                TOTAL IN =   225672672.0000                  TOTAL IN =          23.5344

          OUT:                                     OUT:
          ----                                     ----
             STORAGE     =    38211836.0000               STORAGE     =           1.4560
       CONSTANT HEAD     =           0.0000         CONSTANT HEAD     =           0.0000
     HEAD DEP BOUNDS     =     4760988.0000       HEAD DEP BOUNDS     =           0.2922
      STREAM LEAKAGE     =   172927680.0000        STREAM LEAKAGE     =          12.7654
        UZF RECHARGE     =           0.0000          UZF RECHARGE     =           0.0000
               GW ET     =     1538617.0000                 GW ET     =           0.0000
     SURFACE LEAKAGE     =           0.0000       SURFACE LEAKAGE     =           0.0000
           AG WELLS      =     8236664.5000             AG WELLS      =           9.0205

               TOTAL OUT =   225675808.0000                 TOTAL OUT =          23.5340

                IN - OUT =       -3136.0000                  IN - OUT =       4.1962E-04

     PERCENT DISCREPANCY =          -0.00         PERCENT DISCREPANCY =           0.00






         TIME SUMMARY AT END OF TIME STEP    5 IN STRESS PERIOD    8
                    SECONDS     MINUTES      HOURS       DAYS        YEARS
                    -----------------------------------------------------------
   TIME STEP LENGTH  87667.      1461.1      24.352      1.0147     2.77799E-03
 STRESS PERIOD TIME 4.38333E+05  7305.6      121.76      5.0733     1.38899E-02
         TOTAL TIME 1.63048E+07 2.71746E+05  4529.1      188.71     0.51667    
1
 
 SOLVING FOR HEAD 
                                                   Max.-Head-Change                         Max.-Flux-Residual
  Residual-Control   Outer-Iter.   Inner-Iter.     Column Row Layer    Maximum-Head-Change  Column Row Layer    Maximum-Flux-Residual          L2-NORM 
          0                 1           2             4   13     1       0.1203492587E-01       4   13    1         0.6941701623E+00      0.1466458527E+01
          0                 2           2             7   13     1      -0.3500664193E-02       7   13    1        -0.1941638434E+00      0.2378758507E+00
          0                 3           2             4    7     1      -0.1859715878E+00       4    7    1        -0.9982493218E+01      0.2452639668E+02
          0                 4           2             4    7     1       0.1663464796E+00       4    7    1         0.9178648046E+01      0.2248368798E+02
          0                 5           2             4    7     1      -0.6620881769E-02       5    8    1        -0.3756660901E+00      0.9201168548E+00
          0                 6           1             4    7     1       0.8169867289E-04       5    8    1         0.4765634470E-02      0.1167815510E-01

    ------------------------------------------------
       NWT REQUIRED            6 OUTER ITERATIONS 
       AND A TOTAL OF         11 INNER ITERATIONS.
    ------------------------------------------------

 NO OUTPUT CONTROL FOR STRESS PERIOD    8   TIME STEP    6
 
 SOLVING FOR HEAD 
                                                   Max.-Head-Change                         Max.-Flux-Residual
  Residual-Control   Outer-Iter.   Inner-Iter.     Column Row Layer    Maximum-Head-Change  Column Row Layer    Maximum-Flux-Residual          L2-NORM 
          0                 1           2             4   13     1       0.1273217830E-01       4   13    1         0.7344971634E+00      0.1548062565E+01
          0                 2           2             7   13     1      -0.3514744073E-02       7   13    1        -0.1949427744E+00      0.2432052125E+00
          0                 3           2             4    7     1      -0.1859720269E+00       4    7    1        -0.9982513834E+01      0.2452666905E+02
          0                 4           2             4    7     1       0.1663465810E+00       4    7    1         0.9178649498E+01      0.2248368233E+02
          0                 5           2             4    7     1      -0.6620885807E-02       5    8    1        -0.3756659233E+00      0.9201163850E+00
          0                 6           1             4    7     1       0.8169872285E-04       5    8    1         0.4765632314E-02      0.1167811265E-01

    ------------------------------------------------
       NWT REQUIRED            6 OUTER ITERATIONS 
       AND A TOTAL OF         11 INNER ITERATIONS.
    ------------------------------------------------

 NO OUTPUT CONTROL FOR STRESS PERIOD    8   TIME STEP    7
 
 SOLVING FOR HEAD 
                                                   Max.-Head-Change                         Max.-Flux-Residual
  Residual-Control   Outer-Iter.   Inner-Iter.     Column Row Layer    Maximum-Head-Change  Column Row Layer    Maximum-Flux-Residual          L2-NORM 
          0                 1           2             4   13     1       0.1336381298E-01       4   13    1         0.7710150344E+00      0.1624951568E+01
          0                 2           2             7   13     1      -0.3528394110E-02       7   13    1        -0.1956979229E+00      0.2483806255E+00
          0                 3           2             4    7     1      -0.1859723924E+00       4    7    1        -0.9982530194E+01      0.2452692002E+02
          0                 4           2             4    7     1       0.1663466726E+00       4    7    1         0.9178650294E+01      0.2248367596E+02
          0                 5           2             4    7     1      -0.6620889451E-02       5    8    1        -0.3756657561E+00      0.9201159277E+00
          0                 6           1             4    7     1       0.8169876788E-04       5    8    1         0.4765630169E-02      0.1167807934E-01

    ------------------------------------------------
       NWT REQUIRED            6 OUTER ITERATIONS 
       AND A TOTAL OF         11 INNER ITERATIONS.
    ------------------------------------------------

 NO OUTPUT CONTROL FOR STRESS PERIOD    8   TIME STEP    8
 
 SOLVING FOR HEAD 
                                                   Max.-Head-Change                         Max.-Flux-Residual
  Residual-Control   Outer-Iter.   Inner-Iter.     Column Row Layer    Maximum-Head-Change  Column Row Layer    Maximum-Flux-Residual          L2-NORM 
          0                 1           2             4   13     1       0.1393607695E-01       4   13    1         0.8040872040E+00      0.1697405451E+01
          0                 2           2             7   13     1      -0.3541613582E-02       7   13    1        -0.1964292328E+00      0.2533872489E+00
          0                 3           2             4    7     1      -0.1859727270E+00       4    7    1        -0.9982544629E+01      0.2452715541E+02
          0                 4           2             4    7     1       0.1663467697E+00       4    7    1         0.9178651312E+01      0.2248367094E+02
          0                 5           2             4    7     1      -0.6620893317E-02       5    8    1        -0.3756656212E+00      0.9201155257E+00
          0                 6           1             4    7     1       0.8169881582E-04       5    8    1         0.4765628387E-02      0.1167804472E-01

    ------------------------------------------------
       NWT REQUIRED            6 OUTER ITERATIONS 
       AND A TOTAL OF         11 INNER ITERATIONS.
    ------------------------------------------------

 NO OUTPUT CONTROL FOR STRESS PERIOD    8   TIME STEP    9
 
 SOLVING FOR HEAD 
                                                   Max.-Head-Change                         Max.-Flux-Residual
  Residual-Control   Outer-Iter.   Inner-Iter.     Column Row Layer    Maximum-Head-Change  Column Row Layer    Maximum-Flux-Residual          L2-NORM 
          0                 1           2             4   13     1       0.1445486339E-01       4   13    1         0.8340569260E+00      0.1765685895E+01
          0                 2           2             7   13     1      -0.3554418853E-02       7   13    1        -0.1971376160E+00      0.2582160687E+00
          0                 3           2             4    7     1      -0.1859730142E+00       4    7    1        -0.9982556269E+01      0.2452737438E+02
          0                 4           2             4    7     1       0.1663468648E+00       4    7    1         0.9178652135E+01      0.2248366619E+02
          0                 5           2             4    7     1      -0.6620897101E-02       5    8    1        -0.3756655004E+00      0.9201151387E+00
          0                 6           1             4    7     1       0.8169886242E-04       5    8    1         0.4765626818E-02      0.1167800512E-01

    ------------------------------------------------
       NWT REQUIRED            6 OUTER ITERATIONS 
       AND A TOTAL OF         11 INNER ITERATIONS.
    ------------------------------------------------

 OUTPUT CONTROL FOR STRESS PERIOD    8   TIME STEP   10
    PRINT BUDGET
    SAVE BUDGET
 UBDSV1 SAVING "         STORAGE" ON UNIT 102 AT TIME STEP 10, STRESS PERIOD 8
 UBDSV2 SAVING "   CONSTANT HEAD" ON UNIT 102 AT TIME STEP 10, STRESS PERIOD 8
 UBDSV1 SAVING "FLOW RIGHT FACE " ON UNIT 102 AT TIME STEP 10, STRESS PERIOD 8
 UBDSV1 SAVING "FLOW FRONT FACE " ON UNIT 102 AT TIME STEP 10, STRESS PERIOD 8

  HEAD DEP BOUNDS   PERIOD    8   STEP    10
 BOUNDARY      1   LAYER   1   ROW    13   COL     1   RATE   -0.291192    
 BOUNDARY      2   LAYER   1   ROW    14   COL     9   RATE    0.285763    



 STREAM LISTING     PERIOD      8   STEP       10

 LAYER ROW COL. STREAM  RCH.  FLOW INTO     FLOW TO   FLOW OUT OF   OVRLND.     DIRECT     STREAM       STREAM     STREAM     STREAM   STREAMBED  STREAMBED
                SEG.NO.  NO.  STRM. RCH.    AQUIFER    STRM. RCH.    RUNOFF     PRECIP       ET          HEAD       DEPTH      WIDTH   CONDCTNC.   GRADIENT

   1    1    1     1     1    5.6250E+01  3.5875E-01   5.5891E+01  0.000E+00  0.000E+00  0.000E+00  1.09453E+03  1.479E+00  1.780E+01  8.010E-02  1.493E+00
   1    2    2     1     2    5.5891E+01  5.5550E-01   5.5336E+01  0.000E+00  0.000E+00  0.000E+00  1.08953E+03  1.473E+00  1.774E+01  1.242E-01  1.491E+00
   1    3    3     1     3    5.5336E+01  4.7368E-01   5.4862E+01  0.000E+00  0.000E+00  0.000E+00  1.08389E+03  1.467E+00  1.767E+01  1.060E-01  1.489E+00
   1    3    4     1     4    5.4862E+01  4.3613E-01   5.4426E+01  0.000E+00  0.000E+00  0.000E+00  1.07887E+03  1.461E+00  1.762E+01  9.777E-02  1.487E+00
   1    4    5     2     1    5.2426E+01  3.8056E-01   5.2046E+01  0.000E+00  0.000E+00  0.000E+00  1.07381E+03  1.879E+00  1.200E+01  7.800E-02  1.626E+00
   1    5    6     2     2    5.2046E+01  2.9230E-01   5.1753E+01  0.000E+00  0.000E+00  0.000E+00  1.06838E+03  1.872E+00  1.200E+01  6.000E-02  1.624E+00
   1    6    6     2     3    5.1753E+01  2.9192E-01   5.1461E+01  0.000E+00  0.000E+00  0.000E+00  1.06366E+03  1.865E+00  1.200E+01  6.000E-02  1.622E+00
   1    7    6     2     4    5.1461E+01  2.9154E-01   5.1170E+01  0.000E+00  0.000E+00  0.000E+00  1.05893E+03  1.859E+00  1.200E+01  6.000E-02  1.620E+00
   1    8    6     2     5    5.1170E+01  2.9116E-01   5.0879E+01  0.000E+00  0.000E+00  0.000E+00  1.05421E+03  1.853E+00  1.200E+01  6.000E-02  1.618E+00
   1    3    5     3     1    2.0000E+00  2.8252E-01   1.7175E+00  0.000E+00  0.000E+00  0.000E+00  1.07555E+03  1.909E+00  9.636E+00  7.227E-02  1.955E+00
   1    3    6     3     2    1.7175E+00  2.4905E-01   1.4684E+00  0.000E+00  0.000E+00  0.000E+00  1.07264E+03  1.727E+00  8.909E+00  6.682E-02  1.864E+00
   1    3    7     3     3    1.4684E+00  1.9718E-01   1.2712E+00  0.000E+00  0.000E+00  0.000E+00  1.06987E+03  1.555E+00  8.218E+00  5.547E-02  1.777E+00
   1    4    8     3     4    1.2712E+00  2.2567E-01   1.0456E+00  0.000E+00  0.000E+00  0.000E+00  1.06682E+03  1.364E+00  7.455E+00  6.709E-02  1.682E+00
   1    5    8     3     5    1.0456E+00  1.5790E-01   8.8768E-01  0.000E+00  0.000E+00  0.000E+00  1.06362E+03  1.164E+00  6.655E+00  4.991E-02  1.582E+00
   1    6    8     3     6    8.8768E-01  5.5980E-02   8.3170E-01  0.000E+00  0.000E+00  0.000E+00  1.06158E+03  1.036E+00  6.145E+00  1.844E-02  1.518E+00
   1    5   10     4     1    1.0000E+01  9.0919E-02   9.9091E+00  0.000E+00  0.000E+00  0.000E+00  1.07836E+03  6.368E-01  1.000E+01  2.500E-02  1.212E+00
   1    5    9     4     2    9.9091E+00  1.8158E-01   9.7275E+00  0.000E+00  0.000E+00  0.000E+00  1.07154E+03  6.315E-01  1.000E+01  5.000E-02  1.211E+00
   1    6    8     4     3    9.7275E+00  1.2689E-01   9.6006E+00  0.000E+00  0.000E+00  0.000E+00  1.06381E+03  6.256E-01  1.000E+01  3.500E-02  1.209E+00
   1    6    8     5     1    1.0432E+01  2.2686E-01   1.0205E+01  0.000E+00  0.000E+00  0.000E+00  1.05868E+03  6.790E-01  1.542E+01  6.166E-02  1.226E+00
   1    7    7     5     2    1.0205E+01  2.7894E-01   9.9265E+00  0.000E+00  0.000E+00  0.000E+00  1.05417E+03  6.732E-01  1.519E+01  7.594E-02  1.224E+00
   1    8    7     5     3    9.9265E+00  1.9221E-01   9.7343E+00  0.000E+00  0.000E+00  0.000E+00  1.04992E+03  6.676E-01  1.497E+01  5.241E-02  1.223E+00
   1    8    6     5     4    9.7343E+00  1.3577E-01   9.5985E+00  0.000E+00  0.000E+00  0.000E+00  1.04691E+03  6.637E-01  1.482E+01  3.706E-02  1.221E+00
   1    9    6     6     1    9.5985E+00  2.2097E-01   9.3776E+00  0.000E+00  0.000E+00  0.000E+00  1.04341E+03  6.828E-01  1.200E+01  6.000E-02  1.228E+00
   1   10    7     6     2    9.3776E+00  2.2039E-01   9.1572E+00  0.000E+00  0.000E+00  0.000E+00  1.03885E+03  6.732E-01  1.200E+01  6.000E-02  1.224E+00
   1   11    7     6     3    9.1572E+00  2.1981E-01   8.9374E+00  0.000E+00  0.000E+00  0.000E+00  1.03430E+03  6.636E-01  1.200E+01  6.000E-02  1.221E+00
   1   12    7     6     4    8.9374E+00  2.1923E-01   8.7181E+00  0.000E+00  0.000E+00  0.000E+00  1.02974E+03  6.539E-01  1.200E+01  6.000E-02  1.218E+00
   1   13    7     6     5    8.7181E+00 -1.3946E-01   8.8576E+00  0.000E+00  0.000E+00  0.000E+00  1.02656E+03  6.521E-01  1.200E+01  2.400E-01 -1.937E-01
   1   14    9     7     1    1.5000E+02  1.3359E+00   1.4866E+02  0.000E+00  0.000E+00  0.000E+00  1.03987E+03  2.288E+00  5.529E+01  5.593E-01  7.962E-01
   1   13    8     7     2    1.4866E+02  1.8182E+00   1.4685E+02  0.000E+00  0.000E+00  0.000E+00  1.03478E+03  2.279E+00  5.526E+01  6.148E-01  9.858E-01
   1   13    7     7     3    1.4685E+02  1.4228E+00   1.4542E+02  0.000E+00  0.000E+00  0.000E+00  1.02969E+03  2.271E+00  5.522E+01  5.585E-01  8.493E-01
   1   13    6     8     1    1.5428E+02  7.7659E-01   1.5350E+02  0.000E+00  0.000E+00  0.000E+00  1.02472E+03  2.844E+00  4.124E+01  4.202E-01  6.160E-01
   1   13    5     8     2    1.5350E+02  5.3296E-02   1.5345E+02  0.000E+00  0.000E+00  0.000E+00  1.01847E+03  2.841E+00  4.120E+01  4.198E-01  4.232E-02
   1   13    4     8     3    1.5345E+02 -2.9713E+00   1.5642E+02  0.000E+00  0.000E+00  0.000E+00  1.01223E+03  2.851E+00  4.134E+01  4.213E+00 -2.351E-01
   1   13    3     8     4    1.5642E+02 -4.0221E+00   1.6044E+02  0.000E+00  0.000E+00  0.000E+00  1.00600E+03  2.875E+00  4.169E+01  4.248E+00 -3.156E-01
   1   13    2     8     5    1.6044E+02 -2.9423E+00   1.6339E+02  0.000E+00  0.000E+00  0.000E+00  9.99774E+02  2.899E+00  4.203E+01  4.283E+00 -2.290E-01
   1   13    1     8     6    1.6339E+02 -2.2540E+00   1.6564E+02  0.000E+00  0.000E+00  0.000E+00  9.94791E+02  2.916E+00  4.228E+01  2.585E+00 -2.906E-01
   1    8    6     9     1    5.0879E+01  0.0000E+00   5.0879E+01  0.000E+00  0.000E+00  0.000E+00  1.08476E+03  6.014E+00  4.000E+00  0.000E+00  3.005E+00
   1    8    5     9     2    5.0879E+01  0.0000E+00   5.0879E+01  0.000E+00  0.000E+00  0.000E+00  1.08426E+03  6.014E+00  4.000E+00  0.000E+00  3.005E+00



 UBDSV3 SAVING "           GW ET" ON UNIT  61 AT TIME STEP 10, STRESS PERIOD 8
 UBDSV3 SAVING "    UZF RECHARGE" ON UNIT  61 AT TIME STEP 10, STRESS PERIOD 8
 UBDSV3 SAVING " SURFACE LEAKAGE" ON UNIT  61 AT TIME STEP 10, STRESS PERIOD 8
 UBDSV3 SAVING "       HORT+DUNN" ON UNIT  61 AT TIME STEP 10, STRESS PERIOD 8
 UBDSV3 SAVING "  STORAGE CHANGE" ON UNIT  61 AT TIME STEP 10, STRESS PERIOD 8


UNSATURATED ZONE PACKAGE VOLUMETRIC BUDGET FOR  TIME STEP    10 STRESS PERIOD    8
  ------------------------------------------------------------------------------



     CUMULATIVE VOLUMES      L**3       RATES FOR THIS TIME STEP      L**3/T
     ------------------                 ------------------------

           IN:                                      IN:
           ---                                      ---
        INFILTRATION =   159793199.6696          INFILTRATION =          60.7508

          OUT:                                     OUT:
          ----                                     ----
              UZF ET =   155118381.0059                UZF ET =          60.8175
        UZF RECHARGE =       73224.0000          UZF RECHARGE =       0.0000E+00

            IN - OUT =     4601594.6638              IN - OUT =      -6.6730E-02

          STORAGE:                                 STORAGE:
          --------                                 --------
      STORAGE CHANGE =     4601805.0975        STORAGE CHANGE =      -6.6733E-02

 PERCENT DISCREPANCY IS DIFFERENCE BETWEEN IN-OUT MINUS CHANGE IN STORAGE
 DIVIDED BY THE AVERAGE OF IN AND OUT TIMES 100

 PERCENT DISCREPANCY =          -0.00     PERCENT DISCREPANCY =           0.00






 

            AG WELLS      PERIOD    8   STEP  10
 AG WELL      1   LAYER   1   ROW     6   COL     4   RATE    -1.50393    
 AG WELL      2   LAYER   1   ROW     6   COL     5   RATE    -1.50393    
 AG WELL      3   LAYER   1   ROW     7   COL     4   RATE    -1.50393    
 AG WELL      4   LAYER   1   ROW     7   COL     5   RATE    -1.50393    
 AG WELL      5   LAYER   1   ROW     8   COL     4   RATE    -1.50393    
 AG WELL      6   LAYER   1   ROW     8   COL     5   RATE    -1.50393    
 
 

   DIVERSION SEGMENTS     PERIOD    8   STEP  10
 SEGMENT      9   RATE     50.8787    
 
 

        SW IRRIGATION     PERIOD    8   STEP  10
 SEGMENT      9   ROW     6   COL     4   RATE     8.47995    
 SEGMENT      9   ROW     6   COL     5   RATE     8.47995    
 SEGMENT      9   ROW     7   COL     4   RATE     8.47995    
 SEGMENT      9   ROW     7   COL     5   RATE     8.47995    
 SEGMENT      9   ROW     8   COL     4   RATE     8.47995    
 SEGMENT      9   ROW     8   COL     5   RATE     8.47995    
 
 

        GW IRRIGATION     PERIOD    8   STEP  10
 AG WELL      1   ROW     6   COL     4   RATE     1.50393    
 AG WELL      2   ROW     6   COL     5   RATE     1.50393    
 AG WELL      3   ROW     7   COL     4   RATE     1.50393    
 AG WELL      4   ROW     7   COL     5   RATE     1.50393    
 AG WELL      5   ROW     8   COL     4   RATE     1.50393    
 AG WELL      6   ROW     8   COL     5   RATE     1.50393    
 
1
  VOLUMETRIC BUDGET FOR AGRICULTURAL FIELDS AT  END OF TIME STEP   10, STRESS PERIOD   8
  ------------------------------------------------------------------------------

     CUMULATIVE VOLUMES      L**3       RATES FOR THIS TIME STEP      L**3/T
     ------------------                 ------------------------

           IN:                                      IN:
           ---                                      ---
               AG WELLS  =    12191464.0000                 AG WELLS  =           9.0236
      DIVERSION SEGMENTS =   133442472.0000        DIVERSION SEGMENTS =          50.8787
       IRRIGATION PONDS  =           0.0000         IRRIGATION PONDS  =           0.0000
           GW IRRIGATION =           0.0000             GW IRRIGATION =           0.0000
           SW IRRIGATION =           0.0000             SW IRRIGATION =           0.0000
        SYSTEM LOSSES GW =           0.0000          SYSTEM LOSSES GW =           0.0000
        SYSTEM LOSSES SW =           0.0000          SYSTEM LOSSES SW =           0.0000

                TOTAL IN =   145633936.0000                  TOTAL IN =          59.9022

          OUT:                                     OUT:
          ----                                     ----
               AG WELLS  =           0.0000                 AG WELLS  =           0.0000
      DIVERSION SEGMENTS =           0.0000        DIVERSION SEGMENTS =           0.0000
       IRRIGATION PONDS  =           0.0000         IRRIGATION PONDS  =           0.0000
           GW IRRIGATION =    12191464.0000             GW IRRIGATION =           9.0236
           SW IRRIGATION =   133445128.0000             SW IRRIGATION =          50.8797
        SYSTEM LOSSES GW =           0.0000          SYSTEM LOSSES GW =           0.0000
        SYSTEM LOSSES SW =           0.0000          SYSTEM LOSSES SW =           0.0000

               TOTAL OUT =   145636592.0000                 TOTAL OUT =          59.9033

                IN - OUT =       -2656.0000                  IN - OUT =      -1.0147E-03

     PERCENT DISCREPANCY =          -0.00         PERCENT DISCREPANCY =          -0.00



1
  VOLUMETRIC BUDGET FOR ENTIRE MODEL AT END OF TIME STEP   10, STRESS PERIOD   8
  ------------------------------------------------------------------------------

     CUMULATIVE VOLUMES      L**3       RATES FOR THIS TIME STEP      L**3/T
     ------------------                 ------------------------

           IN:                                      IN:
           ---                                      ---
             STORAGE     =    26001698.0000               STORAGE     =          10.6172
       CONSTANT HEAD     =           0.0000         CONSTANT HEAD     =           0.0000
     HEAD DEP BOUNDS     =     4783869.5000       HEAD DEP BOUNDS     =           0.2858
      STREAM LEAKAGE     =   204970720.0000        STREAM LEAKAGE     =          12.0602
        UZF RECHARGE     =       73223.9531          UZF RECHARGE     =           0.0000
               GW ET     =           0.0000                 GW ET     =           0.0000
     SURFACE LEAKAGE     =           0.0000       SURFACE LEAKAGE     =           0.0000
           AG WELLS      =           0.0000             AG WELLS      =           0.0000

                TOTAL IN =   235829504.0000                  TOTAL IN =          22.9632

          OUT:                                     OUT:
          ----                                     ----
             STORAGE     =    38810780.0000               STORAGE     =           1.3189
       CONSTANT HEAD     =           0.0000         CONSTANT HEAD     =           0.0000
     HEAD DEP BOUNDS     =     4888804.0000       HEAD DEP BOUNDS     =           0.2912
      STREAM LEAKAGE     =   178402784.0000        STREAM LEAKAGE     =          12.3291
        UZF RECHARGE     =           0.0000          UZF RECHARGE     =           0.0000
               GW ET     =     1538617.0000                 GW ET     =           0.0000
     SURFACE LEAKAGE     =           0.0000       SURFACE LEAKAGE     =           0.0000
           AG WELLS      =    12191464.0000             AG WELLS      =           9.0236

               TOTAL OUT =   235832448.0000                 TOTAL OUT =          22.9628

                IN - OUT =       -2944.0000                  IN - OUT =       4.2152E-04

     PERCENT DISCREPANCY =          -0.00         PERCENT DISCREPANCY =           0.00






         TIME SUMMARY AT END OF TIME STEP   10 IN STRESS PERIOD    8
                    SECONDS     MINUTES      HOURS       DAYS        YEARS
                    -----------------------------------------------------------
   TIME STEP LENGTH  87667.      1461.1      24.352      1.0147     2.77799E-03
 STRESS PERIOD TIME 8.76667E+05  14611.      243.52      10.147     2.77799E-02
         TOTAL TIME 1.67431E+07 2.79052E+05  4650.9      193.79     0.53056    
1
 
 SOLVING FOR HEAD 
                                                   Max.-Head-Change                         Max.-Flux-Residual
  Residual-Control   Outer-Iter.   Inner-Iter.     Column Row Layer    Maximum-Head-Change  Column Row Layer    Maximum-Flux-Residual          L2-NORM 
          0                 1           2             4   13     1       0.1492534337E-01       4   13    1         0.8612247884E+00      0.1830088382E+01
          0                 2           2             7   13     1      -0.3566841459E-02       7   13    1        -0.1978247922E+00      0.2628651509E+00
          0                 3           2             4    7     1      -0.1859732586E+00       4    7    1        -0.9982565399E+01      0.2452757799E+02
          0                 4           2             4    7     1       0.1663469578E+00       4    7    1         0.9178652782E+01      0.2248366170E+02
          0                 5           2             4    7     1      -0.6620900805E-02       5    8    1        -0.3756653918E+00      0.9201147793E+00
          0                 6           1             4    7     1       0.8169890812E-04       5    8    1         0.4765625425E-02      0.1167797283E-01

    ------------------------------------------------
       NWT REQUIRED            6 OUTER ITERATIONS 
       AND A TOTAL OF         11 INNER ITERATIONS.
    ------------------------------------------------

 NO OUTPUT CONTROL FOR STRESS PERIOD    8   TIME STEP   11
 
 SOLVING FOR HEAD 
                                                   Max.-Head-Change                         Max.-Flux-Residual
  Residual-Control   Outer-Iter.   Inner-Iter.     Column Row Layer    Maximum-Head-Change  Column Row Layer    Maximum-Flux-Residual          L2-NORM 
          0                 1           2             4   13     1       0.1535205108E-01       4   13    1         0.8858547685E+00      0.1890849330E+01
          0                 2           2             7   13     1      -0.3578821345E-02       7   13    1        -0.1984874712E+00      0.2673310354E+00
          0                 3           2             4    7     1      -0.1859734595E+00       4    7    1        -0.9982571972E+01      0.2452776524E+02
          0                 4           2             4    7     1       0.1663451477E+00       4    7    1         0.9178548346E+01      0.2248340048E+02
          0                 5           2             4    7     1      -0.6620828757E-02       5    8    1        -0.3756610011E+00      0.9201039098E+00
          0                 6           1             4    7     1       0.8169801894E-04       5    8    1         0.4765569659E-02      0.1167780027E-01

    ------------------------------------------------
       NWT REQUIRED            6 OUTER ITERATIONS 
       AND A TOTAL OF         11 INNER ITERATIONS.
    ------------------------------------------------

 NO OUTPUT CONTROL FOR STRESS PERIOD    8   TIME STEP   12
 
 SOLVING FOR HEAD 
                                                   Max.-Head-Change                         Max.-Flux-Residual
  Residual-Control   Outer-Iter.   Inner-Iter.     Column Row Layer    Maximum-Head-Change  Column Row Layer    Maximum-Flux-Residual          L2-NORM 
          0                 1           2             4   13     1       0.1573958155E-01       4   13    1         0.9082139412E+00      0.1948265030E+01
          0                 2           2             7   13     1      -0.3590498831E-02       7   13    1        -0.1991334064E+00      0.2716275421E+00
          0                 3           2             4    7     1      -0.1859736405E+00       4    7    1        -0.9982577301E+01      0.2452794281E+02
          0                 4           2             4    7     1       0.1663452446E+00       4    7    1         0.9178549084E+01      0.2248339747E+02
          0                 5           2             4    7     1      -0.6620832612E-02       5    8    1        -0.3756609320E+00      0.9201036139E+00
          0                 6           1             4    7     1       0.8169806666E-04       5    8    1         0.4765568722E-02      0.1167776992E-01

    ------------------------------------------------
       NWT REQUIRED            6 OUTER ITERATIONS 
       AND A TOTAL OF         11 INNER ITERATIONS.
    ------------------------------------------------

 NO OUTPUT CONTROL FOR STRESS PERIOD    8   TIME STEP   13
 
 SOLVING FOR HEAD 
                                                   Max.-Head-Change                         Max.-Flux-Residual
  Residual-Control   Outer-Iter.   Inner-Iter.     Column Row Layer    Maximum-Head-Change  Column Row Layer    Maximum-Flux-Residual          L2-NORM 
          0                 1           2             4   13     1       0.1609160511E-01       4   13    1         0.9285155927E+00      0.2002550168E+01
          0                 2           2             7   13     1      -0.3601824502E-02       7   13    1        -0.1997598547E+00      0.2757431559E+00
          0                 3           2             4    7     1      -0.1859737650E+00       4    7    1        -0.9982579414E+01      0.2452810699E+02
          0                 4           2             4    7     1       0.1663453188E+00       4    7    1         0.9178548525E+01      0.2248339186E+02
          0                 5           2             4    7     1      -0.6620833466E-02       5    8    1        -0.3756607067E+00      0.9201029323E+00
          0                 6           1             4    7     1       0.8169807696E-04       5    8    1         0.4765565840E-02      0.1167773080E-01

    ------------------------------------------------
       NWT REQUIRED            6 OUTER ITERATIONS 
       AND A TOTAL OF         11 INNER ITERATIONS.
    ------------------------------------------------

 NO OUTPUT CONTROL FOR STRESS PERIOD    8   TIME STEP   14
 
 SOLVING FOR HEAD 
                                                   Max.-Head-Change                         Max.-Flux-Residual
  Residual-Control   Outer-Iter.   Inner-Iter.     Column Row Layer    Maximum-Head-Change  Column Row Layer    Maximum-Flux-Residual          L2-NORM 
          0                 1           2             4   13     1       0.1641155450E-01       4   13    1         0.9469594115E+00      0.2053925390E+01
          0                 2           2             7   13     1      -0.3612820792E-02       7   13    1        -0.2003680539E+00      0.2796943230E+00
          0                 3           2             4    7     1      -0.1859738919E+00       4    7    1        -0.9982581515E+01      0.2452826409E+02
          0                 4           2             4    7     1       0.1663454196E+00       4    7    1         0.9178549394E+01      0.2248339028E+02
          0                 5           2             4    7     1      -0.6620839580E-02       5    8    1        -0.3756607926E+00      0.9201029979E+00
          0                 6           1             4    7     1       0.8169815291E-04       5    8    1         0.4765566863E-02      0.1167770696E-01

    ------------------------------------------------
       NWT REQUIRED            6 OUTER ITERATIONS 
       AND A TOTAL OF         11 INNER ITERATIONS.
    ------------------------------------------------

 OUTPUT CONTROL FOR STRESS PERIOD    8   TIME STEP   15
    PRINT BUDGET
    SAVE BUDGET
 UBDSV1 SAVING "         STORAGE" ON UNIT 102 AT TIME STEP 15, STRESS PERIOD 8
 UBDSV2 SAVING "   CONSTANT HEAD" ON UNIT 102 AT TIME STEP 15, STRESS PERIOD 8
 UBDSV1 SAVING "FLOW RIGHT FACE " ON UNIT 102 AT TIME STEP 15, STRESS PERIOD 8
 UBDSV1 SAVING "FLOW FRONT FACE " ON UNIT 102 AT TIME STEP 15, STRESS PERIOD 8

  HEAD DEP BOUNDS   PERIOD    8   STEP    15
 BOUNDARY      1   LAYER   1   ROW    13   COL     1   RATE   -0.290340    
 BOUNDARY      2   LAYER   1   ROW    14   COL     9   RATE    0.285762    



 STREAM LISTING     PERIOD      8   STEP       15

 LAYER ROW COL. STREAM  RCH.  FLOW INTO     FLOW TO   FLOW OUT OF   OVRLND.     DIRECT     STREAM       STREAM     STREAM     STREAM   STREAMBED  STREAMBED
                SEG.NO.  NO.  STRM. RCH.    AQUIFER    STRM. RCH.    RUNOFF     PRECIP       ET          HEAD       DEPTH      WIDTH   CONDCTNC.   GRADIENT

   1    1    1     1     1    5.6250E+01  3.5874E-01   5.5891E+01  0.000E+00  0.000E+00  0.000E+00  1.09453E+03  1.479E+00  1.780E+01  8.010E-02  1.493E+00
   1    2    2     1     2    5.5891E+01  5.5550E-01   5.5335E+01  0.000E+00  0.000E+00  0.000E+00  1.08953E+03  1.473E+00  1.774E+01  1.242E-01  1.491E+00
   1    3    3     1     3    5.5335E+01  4.7368E-01   5.4862E+01  0.000E+00  0.000E+00  0.000E+00  1.08389E+03  1.467E+00  1.767E+01  1.060E-01  1.489E+00
   1    3    4     1     4    5.4862E+01  4.3613E-01   5.4426E+01  0.000E+00  0.000E+00  0.000E+00  1.07887E+03  1.461E+00  1.762E+01  9.777E-02  1.487E+00
   1    4    5     2     1    5.2426E+01  3.8056E-01   5.2045E+01  0.000E+00  0.000E+00  0.000E+00  1.07381E+03  1.879E+00  1.200E+01  7.800E-02  1.626E+00
   1    5    6     2     2    5.2045E+01  2.9230E-01   5.1753E+01  0.000E+00  0.000E+00  0.000E+00  1.06838E+03  1.872E+00  1.200E+01  6.000E-02  1.624E+00
   1    6    6     2     3    5.1753E+01  2.9192E-01   5.1461E+01  0.000E+00  0.000E+00  0.000E+00  1.06366E+03  1.865E+00  1.200E+01  6.000E-02  1.622E+00
   1    7    6     2     4    5.1461E+01  2.9154E-01   5.1169E+01  0.000E+00  0.000E+00  0.000E+00  1.05893E+03  1.859E+00  1.200E+01  6.000E-02  1.620E+00
   1    8    6     2     5    5.1169E+01  2.9116E-01   5.0878E+01  0.000E+00  0.000E+00  0.000E+00  1.05421E+03  1.853E+00  1.200E+01  6.000E-02  1.618E+00
   1    3    5     3     1    2.0000E+00  2.8252E-01   1.7175E+00  0.000E+00  0.000E+00  0.000E+00  1.07555E+03  1.909E+00  9.636E+00  7.227E-02  1.955E+00
   1    3    6     3     2    1.7175E+00  2.4905E-01   1.4684E+00  0.000E+00  0.000E+00  0.000E+00  1.07264E+03  1.727E+00  8.909E+00  6.682E-02  1.864E+00
   1    3    7     3     3    1.4684E+00  1.9718E-01   1.2712E+00  0.000E+00  0.000E+00  0.000E+00  1.06987E+03  1.555E+00  8.218E+00  5.547E-02  1.777E+00
   1    4    8     3     4    1.2712E+00  2.2567E-01   1.0456E+00  0.000E+00  0.000E+00  0.000E+00  1.06682E+03  1.364E+00  7.455E+00  6.709E-02  1.682E+00
   1    5    8     3     5    1.0456E+00  1.5790E-01   8.8768E-01  0.000E+00  0.000E+00  0.000E+00  1.06362E+03  1.164E+00  6.655E+00  4.991E-02  1.582E+00
   1    6    8     3     6    8.8768E-01  5.5980E-02   8.3170E-01  0.000E+00  0.000E+00  0.000E+00  1.06158E+03  1.036E+00  6.145E+00  1.844E-02  1.518E+00
   1    5   10     4     1    1.0000E+01  9.0919E-02   9.9091E+00  0.000E+00  0.000E+00  0.000E+00  1.07836E+03  6.368E-01  1.000E+01  2.500E-02  1.212E+00
   1    5    9     4     2    9.9091E+00  1.8158E-01   9.7275E+00  0.000E+00  0.000E+00  0.000E+00  1.07154E+03  6.315E-01  1.000E+01  5.000E-02  1.211E+00
   1    6    8     4     3    9.7275E+00  1.2689E-01   9.6006E+00  0.000E+00  0.000E+00  0.000E+00  1.06381E+03  6.256E-01  1.000E+01  3.500E-02  1.209E+00
   1    6    8     5     1    1.0432E+01  2.2686E-01   1.0205E+01  0.000E+00  0.000E+00  0.000E+00  1.05868E+03  6.790E-01  1.542E+01  6.166E-02  1.226E+00
   1    7    7     5     2    1.0205E+01  2.7894E-01   9.9265E+00  0.000E+00  0.000E+00  0.000E+00  1.05417E+03  6.732E-01  1.519E+01  7.594E-02  1.224E+00
   1    8    7     5     3    9.9265E+00  1.9221E-01   9.7343E+00  0.000E+00  0.000E+00  0.000E+00  1.04992E+03  6.676E-01  1.497E+01  5.241E-02  1.223E+00
   1    8    6     5     4    9.7343E+00  1.3577E-01   9.5985E+00  0.000E+00  0.000E+00  0.000E+00  1.04691E+03  6.637E-01  1.482E+01  3.706E-02  1.221E+00
   1    9    6     6     1    9.5985E+00  2.2097E-01   9.3776E+00  0.000E+00  0.000E+00  0.000E+00  1.04341E+03  6.828E-01  1.200E+01  6.000E-02  1.228E+00
   1   10    7     6     2    9.3776E+00  2.2039E-01   9.1572E+00  0.000E+00  0.000E+00  0.000E+00  1.03885E+03  6.732E-01  1.200E+01  6.000E-02  1.224E+00
   1   11    7     6     3    9.1572E+00  2.1981E-01   8.9374E+00  0.000E+00  0.000E+00  0.000E+00  1.03430E+03  6.636E-01  1.200E+01  6.000E-02  1.221E+00
   1   12    7     6     4    8.9374E+00  2.1923E-01   8.7181E+00  0.000E+00  0.000E+00  0.000E+00  1.02974E+03  6.539E-01  1.200E+01  6.000E-02  1.218E+00
   1   13    7     6     5    8.7181E+00 -1.3743E-01   8.8556E+00  0.000E+00  0.000E+00  0.000E+00  1.02656E+03  6.520E-01  1.200E+01  2.400E-01 -1.909E-01
   1   14    9     7     1    1.5000E+02  1.3359E+00   1.4866E+02  0.000E+00  0.000E+00  0.000E+00  1.03987E+03  2.288E+00  5.529E+01  5.593E-01  7.962E-01
   1   13    8     7     2    1.4866E+02  1.8184E+00   1.4685E+02  0.000E+00  0.000E+00  0.000E+00  1.03478E+03  2.279E+00  5.526E+01  6.148E-01  9.859E-01
   1   13    7     7     3    1.4685E+02  1.4276E+00   1.4542E+02  0.000E+00  0.000E+00  0.000E+00  1.02969E+03  2.271E+00  5.522E+01  5.585E-01  8.521E-01
   1   13    6     8     1    1.5427E+02  7.8084E-01   1.5349E+02  0.000E+00  0.000E+00  0.000E+00  1.02472E+03  2.844E+00  4.124E+01  4.202E-01  6.194E-01
   1   13    5     8     2    1.5349E+02  5.7518E-02   1.5344E+02  0.000E+00  0.000E+00  0.000E+00  1.01847E+03  2.841E+00  4.120E+01  4.198E-01  4.567E-02
   1   13    4     8     3    1.5344E+02 -2.8960E+00   1.5633E+02  0.000E+00  0.000E+00  0.000E+00  1.01223E+03  2.851E+00  4.134E+01  4.212E+00 -2.292E-01
   1   13    3     8     4    1.5633E+02 -3.9493E+00   1.6028E+02  0.000E+00  0.000E+00  0.000E+00  1.00600E+03  2.874E+00  4.168E+01  4.247E+00 -3.100E-01
   1   13    2     8     5    1.6028E+02 -2.8437E+00   1.6312E+02  0.000E+00  0.000E+00  0.000E+00  9.99772E+02  2.897E+00  4.201E+01  4.281E+00 -2.214E-01
   1   13    1     8     6    1.6312E+02 -2.1996E+00   1.6532E+02  0.000E+00  0.000E+00  0.000E+00  9.94789E+02  2.914E+00  4.226E+01  2.584E+00 -2.838E-01
   1    8    6     9     1    5.0878E+01  0.0000E+00   5.0878E+01  0.000E+00  0.000E+00  0.000E+00  1.08476E+03  6.014E+00  4.000E+00  0.000E+00  3.005E+00
   1    8    5     9     2    5.0878E+01  0.0000E+00   5.0878E+01  0.000E+00  0.000E+00  0.000E+00  1.08426E+03  6.014E+00  4.000E+00  0.000E+00  3.005E+00



 UBDSV3 SAVING "           GW ET" ON UNIT  61 AT TIME STEP 15, STRESS PERIOD 8
 UBDSV3 SAVING "    UZF RECHARGE" ON UNIT  61 AT TIME STEP 15, STRESS PERIOD 8
 UBDSV3 SAVING " SURFACE LEAKAGE" ON UNIT  61 AT TIME STEP 15, STRESS PERIOD 8
 UBDSV3 SAVING "       HORT+DUNN" ON UNIT  61 AT TIME STEP 15, STRESS PERIOD 8
 UBDSV3 SAVING "  STORAGE CHANGE" ON UNIT  61 AT TIME STEP 15, STRESS PERIOD 8


UNSATURATED ZONE PACKAGE VOLUMETRIC BUDGET FOR  TIME STEP    15 STRESS PERIOD    8
  ------------------------------------------------------------------------------



     CUMULATIVE VOLUMES      L**3       RATES FOR THIS TIME STEP      L**3/T
     ------------------                 ------------------------

           IN:                                      IN:
           ---                                      ---
        INFILTRATION =   186423049.0240          INFILTRATION =          60.7536

          OUT:                                     OUT:
          ----                                     ----
              UZF ET =   181776717.2353                UZF ET =          60.8175
        UZF RECHARGE =       73224.0000          UZF RECHARGE =       0.0000E+00

            IN - OUT =     4573107.7888              IN - OUT =      -6.3858E-02

          STORAGE:                                 STORAGE:
          --------                                 --------
      STORAGE CHANGE =     4573317.4707        STORAGE CHANGE =      -6.3859E-02

 PERCENT DISCREPANCY IS DIFFERENCE BETWEEN IN-OUT MINUS CHANGE IN STORAGE
 DIVIDED BY THE AVERAGE OF IN AND OUT TIMES 100

 PERCENT DISCREPANCY =          -0.00     PERCENT DISCREPANCY =           0.00






 

            AG WELLS      PERIOD    8   STEP  15
 AG WELL      1   LAYER   1   ROW     6   COL     4   RATE    -1.50452    
 AG WELL      2   LAYER   1   ROW     6   COL     5   RATE    -1.50452    
 AG WELL      3   LAYER   1   ROW     7   COL     4   RATE    -1.50452    
 AG WELL      4   LAYER   1   ROW     7   COL     5   RATE    -1.50452    
 AG WELL      5   LAYER   1   ROW     8   COL     4   RATE    -1.50452    
 AG WELL      6   LAYER   1   ROW     8   COL     5   RATE    -1.50452    
 
 

   DIVERSION SEGMENTS     PERIOD    8   STEP  15
 SEGMENT      9   RATE     50.8780    
 
 

        SW IRRIGATION     PERIOD    8   STEP  15
 SEGMENT      9   ROW     6   COL     4   RATE     8.47984    
 SEGMENT      9   ROW     6   COL     5   RATE     8.47984    
 SEGMENT      9   ROW     7   COL     4   RATE     8.47984    
 SEGMENT      9   ROW     7   COL     5   RATE     8.47984    
 SEGMENT      9   ROW     8   COL     4   RATE     8.47984    
 SEGMENT      9   ROW     8   COL     5   RATE     8.47984    
 
 

        GW IRRIGATION     PERIOD    8   STEP  15
 AG WELL      1   ROW     6   COL     4   RATE     1.50452    
 AG WELL      2   ROW     6   COL     5   RATE     1.50452    
 AG WELL      3   ROW     7   COL     4   RATE     1.50452    
 AG WELL      4   ROW     7   COL     5   RATE     1.50452    
 AG WELL      5   ROW     8   COL     4   RATE     1.50452    
 AG WELL      6   ROW     8   COL     5   RATE     1.50452    
 
1
  VOLUMETRIC BUDGET FOR AGRICULTURAL FIELDS AT  END OF TIME STEP   15, STRESS PERIOD   8
  ------------------------------------------------------------------------------

     CUMULATIVE VOLUMES      L**3       RATES FOR THIS TIME STEP      L**3/T
     ------------------                 ------------------------

           IN:                                      IN:
           ---                                      ---
               AG WELLS  =    16147792.0000                 AG WELLS  =           9.0271
      DIVERSION SEGMENTS =   155744048.0000        DIVERSION SEGMENTS =          50.8780
       IRRIGATION PONDS  =           0.0000         IRRIGATION PONDS  =           0.0000
           GW IRRIGATION =           0.0000             GW IRRIGATION =           0.0000
           SW IRRIGATION =           0.0000             SW IRRIGATION =           0.0000
        SYSTEM LOSSES GW =           0.0000          SYSTEM LOSSES GW =           0.0000
        SYSTEM LOSSES SW =           0.0000          SYSTEM LOSSES SW =           0.0000

                TOTAL IN =   171891840.0000                  TOTAL IN =          59.9051

          OUT:                                     OUT:
          ----                                     ----
               AG WELLS  =           0.0000                 AG WELLS  =           0.0000
      DIVERSION SEGMENTS =           0.0000        DIVERSION SEGMENTS =           0.0000
       IRRIGATION PONDS  =           0.0000         IRRIGATION PONDS  =           0.0000
           GW IRRIGATION =    16147792.0000             GW IRRIGATION =           9.0271
           SW IRRIGATION =   155747184.0000             SW IRRIGATION =          50.8790
        SYSTEM LOSSES GW =           0.0000          SYSTEM LOSSES GW =           0.0000
        SYSTEM LOSSES SW =           0.0000          SYSTEM LOSSES SW =           0.0000

               TOTAL OUT =   171894976.0000                 TOTAL OUT =          59.9061

                IN - OUT =       -3136.0000                  IN - OUT =      -1.0185E-03

     PERCENT DISCREPANCY =          -0.00         PERCENT DISCREPANCY =          -0.00



1
  VOLUMETRIC BUDGET FOR ENTIRE MODEL AT END OF TIME STEP   15, STRESS PERIOD   8
  ------------------------------------------------------------------------------

     CUMULATIVE VOLUMES      L**3       RATES FOR THIS TIME STEP      L**3/T
     ------------------                 ------------------------

           IN:                                      IN:
           ---                                      ---
             STORAGE     =    30548148.0000               STORAGE     =          10.2256
       CONSTANT HEAD     =           0.0000         CONSTANT HEAD     =           0.0000
     HEAD DEP BOUNDS     =     4909129.5000       HEAD DEP BOUNDS     =           0.2858
      STREAM LEAKAGE     =   210260672.0000        STREAM LEAKAGE     =          12.0736
        UZF RECHARGE     =       73223.9531          UZF RECHARGE     =           0.0000
               GW ET     =           0.0000                 GW ET     =           0.0000
     SURFACE LEAKAGE     =           0.0000       SURFACE LEAKAGE     =           0.0000
           AG WELLS      =           0.0000             AG WELLS      =           0.0000

                TOTAL IN =   245791168.0000                  TOTAL IN =          22.5850

          OUT:                                     OUT:
          ----                                     ----
             STORAGE     =    39367788.0000               STORAGE     =           1.2412
       CONSTANT HEAD     =           0.0000         CONSTANT HEAD     =           0.0000
     HEAD DEP BOUNDS     =     5016212.5000       HEAD DEP BOUNDS     =           0.2903
      STREAM LEAKAGE     =   183723520.0000        STREAM LEAKAGE     =          12.0260
        UZF RECHARGE     =           0.0000          UZF RECHARGE     =           0.0000
               GW ET     =     1538617.0000                 GW ET     =           0.0000
     SURFACE LEAKAGE     =           0.0000       SURFACE LEAKAGE     =           0.0000
           AG WELLS      =    16147792.0000             AG WELLS      =           9.0271

               TOTAL OUT =   245793936.0000                 TOTAL OUT =          22.5846

                IN - OUT =       -2768.0000                  IN - OUT =       4.2152E-04

     PERCENT DISCREPANCY =          -0.00         PERCENT DISCREPANCY =           0.00






         TIME SUMMARY AT END OF TIME STEP   15 IN STRESS PERIOD    8
                    SECONDS     MINUTES      HOURS       DAYS        YEARS
                    -----------------------------------------------------------
   TIME STEP LENGTH  87667.      1461.1      24.352      1.0147     2.77799E-03
 STRESS PERIOD TIME 1.31500E+06  21917.      365.28      15.220     4.16698E-02
         TOTAL TIME 1.71814E+07 2.86357E+05  4772.6      198.86     0.54445    
1
 
 SOLVING FOR HEAD 
                                                   Max.-Head-Change                         Max.-Flux-Residual
  Residual-Control   Outer-Iter.   Inner-Iter.     Column Row Layer    Maximum-Head-Change  Column Row Layer    Maximum-Flux-Residual          L2-NORM 
          0                 1           2             4   13     1       0.1670248696E-01       4   13    1         0.9637229188E+00      0.2102597638E+01
          0                 2           2             7   13     1      -0.3623464808E-02       7   13    1        -0.2009567505E+00      0.2834839888E+00
          0                 3           2             4    7     1      -0.1859739681E+00       4    7    1        -0.9982580756E+01      0.2452840783E+02
          0                 4           2             4    7     1       0.1663454979E+00       4    7    1         0.9178548990E+01      0.2248338549E+02
          0                 5           2             4    7     1      -0.6620842696E-02       5    8    1        -0.3756607206E+00      0.9201024563E+00
          0                 6           1             4    7     1       0.8169819167E-04       5    8    1         0.4765565931E-02      0.1167764506E-01

    ------------------------------------------------
       NWT REQUIRED            6 OUTER ITERATIONS 
       AND A TOTAL OF         11 INNER ITERATIONS.
    ------------------------------------------------

 NO OUTPUT CONTROL FOR STRESS PERIOD    8   TIME STEP   16
 
 SOLVING FOR HEAD 
                                                   Max.-Head-Change                         Max.-Flux-Residual
  Residual-Control   Outer-Iter.   Inner-Iter.     Column Row Layer    Maximum-Head-Change  Column Row Layer    Maximum-Flux-Residual          L2-NORM 
          0                 1           2             4   13     1       0.1696706857E-01       4   13    1         0.9789610427E+00      0.2148765264E+01
          0                 2           2             7   13     1      -0.3633806806E-02       7   13    1        -0.2015287282E+00      0.2871204261E+00
          0                 3           2             4    7     1      -0.1859740308E+00       4    7    1        -0.9982579151E+01      0.2452854393E+02
          0                 4           2             4    7     1       0.1663455822E+00       4    7    1         0.9178548885E+01      0.2248338245E+02
          0                 5           2             4    7     1      -0.6620846047E-02       5    8    1        -0.3756606728E+00      0.9201023134E+00
          0                 6           1             4    7     1       0.8169823222E-04       5    8    1         0.4765565266E-02      0.1167766690E-01

    ------------------------------------------------
       NWT REQUIRED            6 OUTER ITERATIONS 
       AND A TOTAL OF         11 INNER ITERATIONS.
    ------------------------------------------------

 NO OUTPUT CONTROL FOR STRESS PERIOD    8   TIME STEP   17
 
 SOLVING FOR HEAD 
                                                   Max.-Head-Change                         Max.-Flux-Residual
  Residual-Control   Outer-Iter.   Inner-Iter.     Column Row Layer    Maximum-Head-Change  Column Row Layer    Maximum-Flux-Residual          L2-NORM 
          0                 1           2             4   13     1       0.1720791215E-01       4   13    1         0.9928255292E+00      0.2192594790E+01
          0                 2           2             7   13     1      -0.3643854932E-02       7   13    1        -0.2020844191E+00      0.2906090928E+00
          0                 3           2             4    7     1      -0.1859740835E+00       4    7    1        -0.9982576906E+01      0.2452867294E+02
          0                 4           2             4    7     1       0.1663456723E+00       4    7    1         0.9178549092E+01      0.2248338057E+02
          0                 5           2             4    7     1      -0.6620849636E-02       5    8    1        -0.3756606487E+00      0.9201020581E+00
          0                 6           1             4    7     1       0.8169827680E-04       5    8    1         0.4765564900E-02      0.1167760865E-01

    ------------------------------------------------
       NWT REQUIRED            6 OUTER ITERATIONS 
       AND A TOTAL OF         11 INNER ITERATIONS.
    ------------------------------------------------

 NO OUTPUT CONTROL FOR STRESS PERIOD    8   TIME STEP   18
 
 SOLVING FOR HEAD 
                                                   Max.-Head-Change                         Max.-Flux-Residual
  Residual-Control   Outer-Iter.   Inner-Iter.     Column Row Layer    Maximum-Head-Change  Column Row Layer    Maximum-Flux-Residual          L2-NORM 
          0                 1           2             4   13     1       0.1742725981E-01       4   13    1         0.1005446468E+01      0.2234256411E+01
          0                 2           2             7   13     1      -0.3653604761E-02       7   13    1        -0.2026235757E+00      0.2939582511E+00
          0                 3           2             4    7     1      -0.1859741062E+00       4    7    1        -0.9982572948E+01      0.2452879315E+02
          0                 4           2             4    7     1       0.1663457477E+00       4    7    1         0.9178548464E+01      0.2248337705E+02
          0                 5           2             4    7     1      -0.6620852636E-02       5    8    1        -0.3756606013E+00      0.9201017641E+00
          0                 6           1             4    7     1       0.8169831354E-04       5    8    1         0.4765564269E-02      0.1167758475E-01

    ------------------------------------------------
       NWT REQUIRED            6 OUTER ITERATIONS 
       AND A TOTAL OF         11 INNER ITERATIONS.
    ------------------------------------------------

 NO OUTPUT CONTROL FOR STRESS PERIOD    8   TIME STEP   19
 
 SOLVING FOR HEAD 
                                                   Max.-Head-Change                         Max.-Flux-Residual
  Residual-Control   Outer-Iter.   Inner-Iter.     Column Row Layer    Maximum-Head-Change  Column Row Layer    Maximum-Flux-Residual          L2-NORM 
          0                 1           2             4   13     1       0.1762713105E-01       4   13    1         0.1016941213E+01      0.2273908414E+01
          0                 2           2             7   13     1      -0.3663066255E-02       7   13    1        -0.2031467878E+00      0.2971722621E+00
          0                 3           2             4    7     1      -0.1859741039E+00       4    7    1        -0.9982567570E+01      0.2452890531E+02
          0                 4           2             4    7     1       0.1663458214E+00       4    7    1         0.9178547736E+01      0.2248337363E+02
          0                 5           2             4    7     1      -0.6620853467E-02       5    8    1        -0.3756604394E+00      0.9201012056E+00
          0                 6           1             4    7     1       0.8169832385E-04       5    8    1         0.4765562169E-02      0.1167755563E-01

    ------------------------------------------------
       NWT REQUIRED            6 OUTER ITERATIONS 
       AND A TOTAL OF         11 INNER ITERATIONS.
    ------------------------------------------------

 NO OUTPUT CONTROL FOR STRESS PERIOD    8   TIME STEP   20
 
 SOLVING FOR HEAD 
                                                   Max.-Head-Change                         Max.-Flux-Residual
  Residual-Control   Outer-Iter.   Inner-Iter.     Column Row Layer    Maximum-Head-Change  Column Row Layer    Maximum-Flux-Residual          L2-NORM 
          0                 1           2             4   13     1       0.1780939287E-01       4   13    1         0.1027418058E+01      0.2311671183E+01
          0                 2           2             7   13     1      -0.3672251956E-02       7   13    1        -0.2036547131E+00      0.3002599590E+00
          0                 3           2             4    7     1      -0.1859740920E+00       4    7    1        -0.9982561592E+01      0.2452901192E+02
          0                 4           2             4    7     1       0.1663459010E+00       4    7    1         0.9178547324E+01      0.2248337134E+02
          0                 5           2             4    7     1      -0.6620856636E-02       5    8    1        -0.3756604188E+00      0.9201009794E+00
          0                 6           1             4    7     1       0.8169836305E-04       5    8    1         0.4765561844E-02      0.1167753436E-01

    ------------------------------------------------
       NWT REQUIRED            6 OUTER ITERATIONS 
       AND A TOTAL OF         11 INNER ITERATIONS.
    ------------------------------------------------

 NO OUTPUT CONTROL FOR STRESS PERIOD    8   TIME STEP   21
 
 SOLVING FOR HEAD 
                                                   Max.-Head-Change                         Max.-Flux-Residual
  Residual-Control   Outer-Iter.   Inner-Iter.     Column Row Layer    Maximum-Head-Change  Column Row Layer    Maximum-Flux-Residual          L2-NORM 
          0                 1           2             4   13     1       0.1797574005E-01       4   13    1         0.1036975228E+01      0.2347696407E+01
          0                 2           2             7   13     1      -0.3681184809E-02       7   13    1        -0.2041486347E+00      0.3032292674E+00
          0                 3           2             4    7     1      -0.1859740751E+00       4    7    1        -0.9982555297E+01      0.2452911347E+02
          0                 4           2             4    7     1       0.1663459867E+00       4    7    1         0.9178547247E+01      0.2248337015E+02
          0                 5           2             4    7     1      -0.6620862146E-02       5    8    1        -0.3756605387E+00      0.9201010809E+00
          0                 6           1             4    7     1       0.8169843093E-04       5    8    1         0.4765563309E-02      0.1167750775E-01

    ------------------------------------------------
       NWT REQUIRED            6 OUTER ITERATIONS 
       AND A TOTAL OF         11 INNER ITERATIONS.
    ------------------------------------------------

 NO OUTPUT CONTROL FOR STRESS PERIOD    8   TIME STEP   22
 
 SOLVING FOR HEAD 
                                                   Max.-Head-Change                         Max.-Flux-Residual
  Residual-Control   Outer-Iter.   Inner-Iter.     Column Row Layer    Maximum-Head-Change  Column Row Layer    Maximum-Flux-Residual          L2-NORM 
          0                 1           2             4   13     1       0.1812756488E-01       4   13    1         0.1045693615E+01      0.2382090961E+01
          0                 2           2             7   13     1      -0.3689863944E-02       7   13    1        -0.2046284981E+00      0.3060833469E+00
          0                 3           2             4    7     1      -0.1859740348E+00       4    7    1        -0.9982547684E+01      0.2452920818E+02
          0                 4           2             4    7     1       0.1663460576E+00       4    7    1         0.9178546362E+01      0.2248336727E+02
          0                 5           2             4    7     1      -0.6620862868E-02       5    8    1        -0.3756603942E+00      0.9201005459E+00
          0                 6           1             4    7     1       0.8169844012E-04       5    8    1         0.4765561431E-02      0.1167749914E-01

    ------------------------------------------------
       NWT REQUIRED            6 OUTER ITERATIONS 
       AND A TOTAL OF         11 INNER ITERATIONS.
    ------------------------------------------------

 NO OUTPUT CONTROL FOR STRESS PERIOD    8   TIME STEP   23
 
 SOLVING FOR HEAD 
                                                   Max.-Head-Change                         Max.-Flux-Residual
  Residual-Control   Outer-Iter.   Inner-Iter.     Column Row Layer    Maximum-Head-Change  Column Row Layer    Maximum-Flux-Residual          L2-NORM 
          0                 1           2             4   13     1       0.1826627022E-01       4   13    1         0.1053654382E+01      0.2414961374E+01
          0                 2           2             7   13     1      -0.3698290407E-02       7   13    1        -0.2050943728E+00      0.3088309453E+00
          0                 3           2             4    7     1      -0.1859740091E+00       4    7    1        -0.9982540821E+01      0.2452930096E+02
          0                 4           2             4    7     1       0.1663461423E+00       4    7    1         0.9178546245E+01      0.2248336652E+02
          0                 5           2             4    7     1      -0.6620868340E-02       5    8    1        -0.3756605260E+00      0.9201006878E+00
          0                 6           1             4    7     1       0.8169850778E-04       5    8    1         0.4765563077E-02      0.1167746473E-01

    ------------------------------------------------
       NWT REQUIRED            6 OUTER ITERATIONS 
       AND A TOTAL OF         11 INNER ITERATIONS.
    ------------------------------------------------

 NO OUTPUT CONTROL FOR STRESS PERIOD    8   TIME STEP   24
 
 SOLVING FOR HEAD 
                                                   Max.-Head-Change                         Max.-Flux-Residual
  Residual-Control   Outer-Iter.   Inner-Iter.     Column Row Layer    Maximum-Head-Change  Column Row Layer    Maximum-Flux-Residual          L2-NORM 
          0                 1           2             4   13     1       0.1839295459E-01       4   13    1         0.1060921369E+01      0.2446414979E+01
          0                 2           2             7   13     1      -0.3706488599E-02       7   13    1        -0.2055476150E+00      0.3114728887E+00
          0                 3           2             4    7     1      -0.1859739599E+00       4    7    1        -0.9982532638E+01      0.2452938764E+02
          0                 4           2             4    7     1       0.1663462255E+00       4    7    1         0.9178546036E+01      0.2248336579E+02
          0                 5           2             4    7     1      -0.6620871649E-02       5    8    1        -0.3756605409E+00      0.9201005345E+00
          0                 6           1             4    7     1       0.8169854833E-04       5    8    1         0.4765563203E-02      0.1167744143E-01

    ------------------------------------------------
       NWT REQUIRED            6 OUTER ITERATIONS 
       AND A TOTAL OF         11 INNER ITERATIONS.
    ------------------------------------------------

 NO OUTPUT CONTROL FOR STRESS PERIOD    8   TIME STEP   25
 
 SOLVING FOR HEAD 
                                                   Max.-Head-Change                         Max.-Flux-Residual
  Residual-Control   Outer-Iter.   Inner-Iter.     Column Row Layer    Maximum-Head-Change  Column Row Layer    Maximum-Flux-Residual          L2-NORM 
          0                 1           2             4   13     1       0.1850897750E-01       4   13    1         0.1067573259E+01      0.2476555051E+01
          0                 2           2             7   13     1      -0.3714451643E-02       7   13    1        -0.2059878179E+00      0.3140262374E+00
          0                 3           2             4    7     1      -0.1859738911E+00       4    7    1        -0.9982523396E+01      0.2452946795E+02
          0                 4           2             4    7     1       0.1663462938E+00       4    7    1         0.9178545036E+01      0.2248336334E+02
          0                 5           2             4    7     1      -0.6620874370E-02       5    8    1        -0.3756605284E+00      0.9201003236E+00
          0                 6           1             4    7     1       0.8169858171E-04       5    8    1         0.4765562995E-02      0.1167741649E-01

    ------------------------------------------------
       NWT REQUIRED            6 OUTER ITERATIONS 
       AND A TOTAL OF         11 INNER ITERATIONS.
    ------------------------------------------------

 NO OUTPUT CONTROL FOR STRESS PERIOD    8   TIME STEP   26
 
 SOLVING FOR HEAD 
                                                   Max.-Head-Change                         Max.-Flux-Residual
  Residual-Control   Outer-Iter.   Inner-Iter.     Column Row Layer    Maximum-Head-Change  Column Row Layer    Maximum-Flux-Residual          L2-NORM 
          0                 1           2             4   13     1       0.1861512307E-01       4   13    1         0.1073655460E+01      0.2505453175E+01
          0                 2           2             7   13     1      -0.3722200084E-02       7   13    1        -0.2064161572E+00      0.3164845901E+00
          0                 3           2             4    7     1      -0.1859738372E+00       4    7    1        -0.9982514930E+01      0.2452954773E+02
          0                 4           2             4    7     1       0.1663463759E+00       4    7    1         0.9178544807E+01      0.2248336297E+02
          0                 5           2             4    7     1      -0.6620877635E-02       5    8    1        -0.3756605526E+00      0.9201001917E+00
          0                 6           1             4    7     1       0.8169862203E-04       5    8    1         0.4765563260E-02      0.1167739507E-01

    ------------------------------------------------
       NWT REQUIRED            6 OUTER ITERATIONS 
       AND A TOTAL OF         11 INNER ITERATIONS.
    ------------------------------------------------

 NO OUTPUT CONTROL FOR STRESS PERIOD    8   TIME STEP   27
 
 SOLVING FOR HEAD 
                                                   Max.-Head-Change                         Max.-Flux-Residual
  Residual-Control   Outer-Iter.   Inner-Iter.     Column Row Layer    Maximum-Head-Change  Column Row Layer    Maximum-Flux-Residual          L2-NORM 
          0                 1           2             4   13     1       0.1871230522E-01       4   13    1         0.1079220925E+01      0.2533190971E+01
          0                 2           2             7   13     1      -0.3729750669E-02       7   13    1        -0.2068335295E+00      0.3188578190E+00
          0                 3           2             4    7     1      -0.1859737473E+00       4    7    1        -0.9982504520E+01      0.2452961952E+02
          0                 4           2             4    7     1       0.1663464356E+00       4    7    1         0.9178543368E+01      0.2248335981E+02
          0                 5           2             4    7     1      -0.6620877911E-02       5    8    1        -0.3756604123E+00      0.9200996566E+00
          0                 6           1             4    7     1       0.8169862539E-04       5    8    1         0.4765561431E-02      0.1167736624E-01

    ------------------------------------------------
       NWT REQUIRED            6 OUTER ITERATIONS 
       AND A TOTAL OF         11 INNER ITERATIONS.
    ------------------------------------------------

 NO OUTPUT CONTROL FOR STRESS PERIOD    8   TIME STEP   28
 
 SOLVING FOR HEAD 
                                                   Max.-Head-Change                         Max.-Flux-Residual
  Residual-Control   Outer-Iter.   Inner-Iter.     Column Row Layer    Maximum-Head-Change  Column Row Layer    Maximum-Flux-Residual          L2-NORM 
          0                 1           2             4   13     1       0.1880144925E-01       4   13    1         0.1084323231E+01      0.2559842399E+01
          0                 2           2             7   13     1      -0.3737074442E-02       7   13    1        -0.2072383410E+00      0.3211482536E+00
          0                 3           2             4    7     1      -0.1859736716E+00       4    7    1        -0.9982494849E+01      0.2452969094E+02
          0                 4           2             4    7     1       0.1663465091E+00       4    7    1         0.9178542696E+01      0.2248335872E+02
          0                 5           2             4    7     1      -0.6620880833E-02       5    8    1        -0.3756604268E+00      0.9200994907E+00
          0                 6           1             4    7     1       0.8169866146E-04       5    8    1         0.4765561568E-02      0.1167734239E-01

    ------------------------------------------------
       NWT REQUIRED            6 OUTER ITERATIONS 
       AND A TOTAL OF         11 INNER ITERATIONS.
    ------------------------------------------------

 NO OUTPUT CONTROL FOR STRESS PERIOD    8   TIME STEP   29
 
 SOLVING FOR HEAD 
                                                   Max.-Head-Change                         Max.-Flux-Residual
  Residual-Control   Outer-Iter.   Inner-Iter.     Column Row Layer    Maximum-Head-Change  Column Row Layer    Maximum-Flux-Residual          L2-NORM 
          0                 1           2             4   13     1       0.1888322282E-01       4   13    1         0.1089001069E+01      0.2585472775E+01
          0                 2           2             7   13     1      -0.3744215514E-02       7   13    1        -0.2076330467E+00      0.3233623692E+00
          0                 3           2             4    7     1      -0.1859735962E+00       4    7    1        -0.9982485205E+01      0.2452975965E+02
          0                 4           2             4    7     1       0.1663465885E+00       4    7    1         0.9178542383E+01      0.2248335865E+02
          0                 5           2             4    7     1      -0.6620886097E-02       5    8    1        -0.3756605783E+00      0.9200996816E+00
          0                 6           1             4    7     1       0.8169872643E-04       5    8    1         0.4765563434E-02      0.1167733621E-01

    ------------------------------------------------
       NWT REQUIRED            6 OUTER ITERATIONS 
       AND A TOTAL OF         11 INNER ITERATIONS.
    ------------------------------------------------

 NO OUTPUT CONTROL FOR STRESS PERIOD    8   TIME STEP   30



 STREAM LISTING     PERIOD      8   STEP       30

 LAYER ROW COL. STREAM  RCH.  FLOW INTO     FLOW TO   FLOW OUT OF   OVRLND.     DIRECT     STREAM       STREAM     STREAM     STREAM   STREAMBED  STREAMBED
                SEG.NO.  NO.  STRM. RCH.    AQUIFER    STRM. RCH.    RUNOFF     PRECIP       ET          HEAD       DEPTH      WIDTH   CONDCTNC.   GRADIENT

   1    1    1     1     1    5.6250E+01  3.5874E-01   5.5891E+01  0.000E+00  0.000E+00  0.000E+00  1.09453E+03  1.479E+00  1.780E+01  8.010E-02  1.493E+00
   1    2    2     1     2    5.5891E+01  5.5550E-01   5.5335E+01  0.000E+00  0.000E+00  0.000E+00  1.08953E+03  1.473E+00  1.774E+01  1.242E-01  1.491E+00
   1    3    3     1     3    5.5335E+01  4.7368E-01   5.4862E+01  0.000E+00  0.000E+00  0.000E+00  1.08389E+03  1.467E+00  1.767E+01  1.060E-01  1.489E+00
   1    3    4     1     4    5.4862E+01  4.3613E-01   5.4426E+01  0.000E+00  0.000E+00  0.000E+00  1.07887E+03  1.461E+00  1.762E+01  9.777E-02  1.487E+00
   1    4    5     2     1    5.2426E+01  3.8056E-01   5.2045E+01  0.000E+00  0.000E+00  0.000E+00  1.07381E+03  1.879E+00  1.200E+01  7.800E-02  1.626E+00
   1    5    6     2     2    5.2045E+01  2.9230E-01   5.1753E+01  0.000E+00  0.000E+00  0.000E+00  1.06838E+03  1.872E+00  1.200E+01  6.000E-02  1.624E+00
   1    6    6     2     3    5.1753E+01  2.9192E-01   5.1461E+01  0.000E+00  0.000E+00  0.000E+00  1.06366E+03  1.865E+00  1.200E+01  6.000E-02  1.622E+00
   1    7    6     2     4    5.1461E+01  2.9154E-01   5.1169E+01  0.000E+00  0.000E+00  0.000E+00  1.05893E+03  1.859E+00  1.200E+01  6.000E-02  1.620E+00
   1    8    6     2     5    5.1169E+01  2.9116E-01   5.0878E+01  0.000E+00  0.000E+00  0.000E+00  1.05421E+03  1.853E+00  1.200E+01  6.000E-02  1.618E+00
   1    3    5     3     1    2.0000E+00  2.8252E-01   1.7175E+00  0.000E+00  0.000E+00  0.000E+00  1.07555E+03  1.909E+00  9.636E+00  7.227E-02  1.955E+00
   1    3    6     3     2    1.7175E+00  2.4905E-01   1.4684E+00  0.000E+00  0.000E+00  0.000E+00  1.07264E+03  1.727E+00  8.909E+00  6.682E-02  1.864E+00
   1    3    7     3     3    1.4684E+00  1.9718E-01   1.2712E+00  0.000E+00  0.000E+00  0.000E+00  1.06987E+03  1.555E+00  8.218E+00  5.547E-02  1.777E+00
   1    4    8     3     4    1.2712E+00  2.2567E-01   1.0456E+00  0.000E+00  0.000E+00  0.000E+00  1.06682E+03  1.364E+00  7.455E+00  6.709E-02  1.682E+00
   1    5    8     3     5    1.0456E+00  1.5790E-01   8.8768E-01  0.000E+00  0.000E+00  0.000E+00  1.06362E+03  1.164E+00  6.655E+00  4.991E-02  1.582E+00
   1    6    8     3     6    8.8768E-01  5.5980E-02   8.3170E-01  0.000E+00  0.000E+00  0.000E+00  1.06158E+03  1.036E+00  6.145E+00  1.844E-02  1.518E+00
   1    5   10     4     1    1.0000E+01  9.0919E-02   9.9091E+00  0.000E+00  0.000E+00  0.000E+00  1.07836E+03  6.368E-01  1.000E+01  2.500E-02  1.212E+00
   1    5    9     4     2    9.9091E+00  1.8158E-01   9.7275E+00  0.000E+00  0.000E+00  0.000E+00  1.07154E+03  6.315E-01  1.000E+01  5.000E-02  1.211E+00
   1    6    8     4     3    9.7275E+00  1.2689E-01   9.6006E+00  0.000E+00  0.000E+00  0.000E+00  1.06381E+03  6.256E-01  1.000E+01  3.500E-02  1.209E+00
   1    6    8     5     1    1.0432E+01  2.2686E-01   1.0205E+01  0.000E+00  0.000E+00  0.000E+00  1.05868E+03  6.790E-01  1.542E+01  6.166E-02  1.226E+00
   1    7    7     5     2    1.0205E+01  2.7894E-01   9.9265E+00  0.000E+00  0.000E+00  0.000E+00  1.05417E+03  6.732E-01  1.519E+01  7.594E-02  1.224E+00
   1    8    7     5     3    9.9265E+00  1.9221E-01   9.7343E+00  0.000E+00  0.000E+00  0.000E+00  1.04992E+03  6.676E-01  1.497E+01  5.241E-02  1.223E+00
   1    8    6     5     4    9.7343E+00  1.3577E-01   9.5985E+00  0.000E+00  0.000E+00  0.000E+00  1.04691E+03  6.637E-01  1.482E+01  3.706E-02  1.221E+00
   1    9    6     6     1    9.5985E+00  2.2097E-01   9.3776E+00  0.000E+00  0.000E+00  0.000E+00  1.04341E+03  6.828E-01  1.200E+01  6.000E-02  1.228E+00
   1   10    7     6     2    9.3776E+00  2.2039E-01   9.1572E+00  0.000E+00  0.000E+00  0.000E+00  1.03885E+03  6.732E-01  1.200E+01  6.000E-02  1.224E+00
   1   11    7     6     3    9.1572E+00  2.1981E-01   8.9374E+00  0.000E+00  0.000E+00  0.000E+00  1.03430E+03  6.636E-01  1.200E+01  6.000E-02  1.221E+00
   1   12    7     6     4    8.9374E+00  2.1923E-01   8.7181E+00  0.000E+00  0.000E+00  0.000E+00  1.02974E+03  6.539E-01  1.200E+01  6.000E-02  1.218E+00
   1   13    7     6     5    8.7181E+00 -1.3269E-01   8.8508E+00  0.000E+00  0.000E+00  0.000E+00  1.02656E+03  6.519E-01  1.200E+01  2.400E-01 -1.843E-01
   1   14    9     7     1    1.5000E+02  1.3358E+00   1.4866E+02  0.000E+00  0.000E+00  0.000E+00  1.03987E+03  2.288E+00  5.529E+01  5.593E-01  7.961E-01
   1   13    8     7     2    1.4866E+02  1.8197E+00   1.4684E+02  0.000E+00  0.000E+00  0.000E+00  1.03478E+03  2.279E+00  5.526E+01  6.148E-01  9.867E-01
   1   13    7     7     3    1.4684E+02  1.4386E+00   1.4541E+02  0.000E+00  0.000E+00  0.000E+00  1.02969E+03  2.271E+00  5.522E+01  5.585E-01  8.587E-01
   1   13    6     8     1    1.5426E+02  7.9112E-01   1.5347E+02  0.000E+00  0.000E+00  0.000E+00  1.02472E+03  2.844E+00  4.124E+01  4.202E-01  6.276E-01
   1   13    5     8     2    1.5347E+02  6.7903E-02   1.5340E+02  0.000E+00  0.000E+00  0.000E+00  1.01847E+03  2.841E+00  4.119E+01  4.198E-01  5.392E-02
   1   13    4     8     3    1.5340E+02 -2.7905E+00   1.5619E+02  0.000E+00  0.000E+00  0.000E+00  1.01223E+03  2.850E+00  4.133E+01  4.212E+00 -2.209E-01
   1   13    3     8     4    1.5619E+02 -3.8409E+00   1.6003E+02  0.000E+00  0.000E+00  0.000E+00  1.00600E+03  2.873E+00  4.166E+01  4.245E+00 -3.016E-01
   1   13    2     8     5    1.6003E+02 -2.6950E+00   1.6272E+02  0.000E+00  0.000E+00  0.000E+00  9.99770E+02  2.895E+00  4.198E+01  4.278E+00 -2.100E-01
   1   13    1     8     6    1.6272E+02 -2.0918E+00   1.6482E+02  0.000E+00  0.000E+00  0.000E+00  9.94786E+02  2.911E+00  4.221E+01  2.581E+00 -2.702E-01
   1    8    6     9     1    5.0878E+01  0.0000E+00   5.0878E+01  0.000E+00  0.000E+00  0.000E+00  1.08476E+03  6.014E+00  4.000E+00  0.000E+00  3.005E+00
   1    8    5     9     2    5.0878E+01  0.0000E+00   5.0878E+01  0.000E+00  0.000E+00  0.000E+00  1.08426E+03  6.014E+00  4.000E+00  0.000E+00  3.005E+00





UNSATURATED ZONE PACKAGE VOLUMETRIC BUDGET FOR  TIME STEP    30 STRESS PERIOD    8
  ------------------------------------------------------------------------------



     CUMULATIVE VOLUMES      L**3       RATES FOR THIS TIME STEP      L**3/T
     ------------------                 ------------------------

           IN:                                      IN:
           ---                                      ---
        INFILTRATION =   266319431.4622          INFILTRATION =          60.7610

          OUT:                                     OUT:
          ----                                     ----
              UZF ET =   261751725.9235                UZF ET =          60.8175
        UZF RECHARGE =       73224.0000          UZF RECHARGE =       0.0000E+00

            IN - OUT =     4494481.5388              IN - OUT =      -5.6505E-02

          STORAGE:                                 STORAGE:
          --------                                 --------
      STORAGE CHANGE =     4494688.9000        STORAGE CHANGE =      -5.6505E-02

 PERCENT DISCREPANCY IS DIFFERENCE BETWEEN IN-OUT MINUS CHANGE IN STORAGE
 DIVIDED BY THE AVERAGE OF IN AND OUT TIMES 100

 PERCENT DISCREPANCY =          -0.00     PERCENT DISCREPANCY =           0.00






1
  VOLUMETRIC BUDGET FOR AGRICULTURAL FIELDS AT  END OF TIME STEP   30, STRESS PERIOD   8
  ------------------------------------------------------------------------------

     CUMULATIVE VOLUMES      L**3       RATES FOR THIS TIME STEP      L**3/T
     ------------------                 ------------------------

           IN:                                      IN:
           ---                                      ---
               AG WELLS  =    28023774.0000                 AG WELLS  =           9.0345
      DIVERSION SEGMENTS =   222648608.0000        DIVERSION SEGMENTS =          50.8780
       IRRIGATION PONDS  =           0.0000         IRRIGATION PONDS  =           0.0000
           GW IRRIGATION =           0.0000             GW IRRIGATION =           0.0000
           SW IRRIGATION =           0.0000             SW IRRIGATION =           0.0000
        SYSTEM LOSSES GW =           0.0000          SYSTEM LOSSES GW =           0.0000
        SYSTEM LOSSES SW =           0.0000          SYSTEM LOSSES SW =           0.0000

                TOTAL IN =   250672384.0000                  TOTAL IN =          59.9125

          OUT:                                     OUT:
          ----                                     ----
               AG WELLS  =           0.0000                 AG WELLS  =           0.0000
      DIVERSION SEGMENTS =           0.0000        DIVERSION SEGMENTS =           0.0000
       IRRIGATION PONDS  =           0.0000         IRRIGATION PONDS  =           0.0000
           GW IRRIGATION =    28023774.0000             GW IRRIGATION =           9.0345
           SW IRRIGATION =   222653184.0000             SW IRRIGATION =          50.8790
        SYSTEM LOSSES GW =           0.0000          SYSTEM LOSSES GW =           0.0000
        SYSTEM LOSSES SW =           0.0000          SYSTEM LOSSES SW =           0.0000

               TOTAL OUT =   250676960.0000                 TOTAL OUT =          59.9135

                IN - OUT =       -4576.0000                  IN - OUT =      -1.0185E-03

     PERCENT DISCREPANCY =          -0.00         PERCENT DISCREPANCY =          -0.00



1
  VOLUMETRIC BUDGET FOR ENTIRE MODEL AT END OF TIME STEP   30, STRESS PERIOD   8
  ------------------------------------------------------------------------------

     CUMULATIVE VOLUMES      L**3       RATES FOR THIS TIME STEP      L**3/T
     ------------------                 ------------------------

           IN:                                      IN:
           ---                                      ---
             STORAGE     =    43455364.0000               STORAGE     =           9.5516
       CONSTANT HEAD     =           0.0000         CONSTANT HEAD     =           0.0000
     HEAD DEP BOUNDS     =     5284904.0000       HEAD DEP BOUNDS     =           0.2858
      STREAM LEAKAGE     =   226161712.0000        STREAM LEAKAGE     =          12.1066
        UZF RECHARGE     =       73223.9531          UZF RECHARGE     =           0.0000
               GW ET     =           0.0000                 GW ET     =           0.0000
     SURFACE LEAKAGE     =           0.0000       SURFACE LEAKAGE     =           0.0000
           AG WELLS      =           0.0000             AG WELLS      =           0.0000

                TOTAL IN =   274975200.0000                  TOTAL IN =          21.9440

          OUT:                                     OUT:
          ----                                     ----
             STORAGE     =    40864772.0000               STORAGE     =           1.0696
       CONSTANT HEAD     =           0.0000         CONSTANT HEAD     =           0.0000
     HEAD DEP BOUNDS     =     5396717.5000       HEAD DEP BOUNDS     =           0.2887
      STREAM LEAKAGE     =   199153536.0000        STREAM LEAKAGE     =          11.5509
        UZF RECHARGE     =           0.0000          UZF RECHARGE     =           0.0000
               GW ET     =     1538617.0000                 GW ET     =           0.0000
     SURFACE LEAKAGE     =           0.0000       SURFACE LEAKAGE     =           0.0000
           AG WELLS      =    28023774.0000             AG WELLS      =           9.0345

               TOTAL OUT =   274977408.0000                 TOTAL OUT =          21.9436

                IN - OUT =       -2208.0000                  IN - OUT =       4.2152E-04

     PERCENT DISCREPANCY =          -0.00         PERCENT DISCREPANCY =           0.00






         TIME SUMMARY AT END OF TIME STEP   30 IN STRESS PERIOD    8
                    SECONDS     MINUTES      HOURS       DAYS        YEARS
                    -----------------------------------------------------------
   TIME STEP LENGTH  87667.      1461.1      24.352      1.0147     2.77799E-03
 STRESS PERIOD TIME 2.63000E+06  43833.      730.56      30.440     8.33397E-02
         TOTAL TIME 1.84964E+07 3.08274E+05  5137.9      214.08     0.58612    
1
1
                            STRESS PERIOD NO.    9, LENGTH =   2630000.    
                            -----------------------------------------------

                              NUMBER OF TIME STEPS =    30

                               MULTIPLIER FOR DELT =     1.000

                            INITIAL TIME STEP SIZE =   87666.66    

 REUSING NON-PARAMETER GHB CELLS FROM LAST STRESS PERIOD

      2 GHB CELLS

 REUSING STREAM SEGMENT DATA FROM LAST STRESS PERIOD



            AREAL INFILTRATION RATE
 READING ON UNIT   19 WITH FORMAT: (FREE)              

            1           2           3           4           5           6           7           8           9          10
 ........................................................................................................................
   1   1.0000E-10  2.0000E-10   0.000       0.000       0.000       0.000       0.000       0.000       0.000       0.000    
   2   2.0000E-10  1.0000E-10  2.0000E-10   0.000       0.000      8.0000E-10  8.0000E-10  5.0000E-10   0.000       0.000    
   3    0.000      5.0000E-10  1.0000E-10  1.0000E-10  8.0000E-10  8.0000E-10  5.0000E-10  5.0000E-10   0.000       0.000    
   4   8.0000E-10  5.0000E-10  1.0000E-10  1.0000E-10  1.0000E-10  1.0000E-10  1.0000E-10  1.0000E-10  2.0000E-10   0.000    
   5   8.0000E-10  5.0000E-10  1.0000E-10  1.0000E-10  1.0000E-10  1.0000E-10  1.0000E-10  1.0000E-10  1.0000E-10  1.0000E-10
   6   8.0000E-10  5.0000E-10  5.0000E-10  2.0000E-10  2.0000E-10  1.0000E-10  1.0000E-10  1.0000E-10  1.0000E-10  5.0000E-10
   7   8.0000E-10  5.0000E-10  5.0000E-10  2.0000E-10  2.0000E-10  1.0000E-10  1.0000E-10  2.0000E-10  2.0000E-10   0.000    
   8    0.000      5.0000E-10  5.0000E-10  2.0000E-10  2.0000E-10  1.0000E-10  1.0000E-10  2.0000E-10  5.0000E-10   0.000    
   9    0.000      5.0000E-10  5.0000E-10  2.0000E-10  2.0000E-10  1.0000E-10  1.0000E-10  2.0000E-10  5.0000E-10   0.000    
  10    0.000      5.0000E-10  5.0000E-10  2.0000E-10  2.0000E-10  1.0000E-10  1.0000E-10  2.0000E-10  5.0000E-10  8.0000E-10
  11    0.000      1.0000E-10  1.0000E-10  1.0000E-10  1.0000E-10  1.0000E-10  1.0000E-10  2.0000E-10  5.0000E-10   0.000    
  12   1.0000E-10  1.0000E-10  1.0000E-10  1.0000E-10  1.0000E-10  1.0000E-10  1.0000E-10  1.0000E-10  2.0000E-10   0.000    
  13   1.0000E-10  1.0000E-10  2.0000E-10  2.0000E-10  2.0000E-10  2.0000E-10  2.0000E-10  1.0000E-10  1.0000E-10   0.000    
  14    0.000      2.0000E-10  5.0000E-10  5.0000E-10  5.0000E-10  5.0000E-10  5.0000E-10  2.0000E-10  1.0000E-10   0.000    
  15    0.000       0.000      8.0000E-10  8.0000E-10  8.0000E-10  8.0000E-10   0.000       0.000       0.000       0.000    

                  ET RATE =  3.250000E-07

 USING ET EXTINCTION DEPTH FROM PREVIOUS STRESS PERIOD. CURRENT PERIOD IS:       9

 USING EXTINCTION WATER CONTENT FROM PREVIOUS STRESS PERIOD. CURRENT PERIOD IS:       9

 USING AIR ENTRY PRESSURE FROM PREVIOUS STRESS PERIOD. CURRENT PERIOD IS:       9

 USING ROOT PRESSURE HEAD FROM PREVIOUS STRESS PERIOD. CURRENT PERIOD IS:       9

 USING ROOT ACTIVITY FROM PREVIOUS STRESS PERIOD. CURRENT PERIOD IS:       9

 PROCESSING AG STRESS PERIOD DATA

 READING AG STRESS PERIOD DATA

 READING IRRIGATION SEGMENT

 READING IRRIGATION WELL

 READING SUPPLEMENTAL WELL

 NO IRRPOND OR REUSING IRRPOND DATA FROM LAST STRESS PERIOD

 END PROCESSING AG STRESS PERIOD DATA OPTIONS
 
 SOLVING FOR HEAD 
                                                   Max.-Head-Change                         Max.-Flux-Residual
  Residual-Control   Outer-Iter.   Inner-Iter.     Column Row Layer    Maximum-Head-Change  Column Row Layer    Maximum-Flux-Residual          L2-NORM 
          0                 1           2             5    6     1       0.1405187175E-01       5    6    1         0.7640722919E+00      0.1833857420E+01
          0                 2           2             5    7     1      -0.2475622471E-01       5    6    1        -0.1359289144E+01      0.3298284883E+01
          0                 3           2             5    7     1       0.1685804195E-02       5    6    1         0.9515012564E-01      0.2308784208E+00
          0                 4           1             5    7     1      -0.6707983317E-04       5    6    1        -0.3891646285E-02      0.9442939752E-02

    ------------------------------------------------
       NWT REQUIRED            4 OUTER ITERATIONS 
       AND A TOTAL OF          7 INNER ITERATIONS.
    ------------------------------------------------

 NO OUTPUT CONTROL FOR STRESS PERIOD    9   TIME STEP    1
 
 SOLVING FOR HEAD 
                                                   Max.-Head-Change                         Max.-Flux-Residual
  Residual-Control   Outer-Iter.   Inner-Iter.     Column Row Layer    Maximum-Head-Change  Column Row Layer    Maximum-Flux-Residual          L2-NORM 
          0                 1           2             4   13     1       0.1490459639E-01       4   13    1         0.8586634810E+00      0.2340105641E+01
          0                 2           2             7   13     1      -0.2813944240E-02       7   13    1        -0.1560544655E+00      0.2754729756E+00
          0                 3           2             4    7     1      -0.1510400380E+00       4    7    1        -0.8107359011E+01      0.1991868984E+02
          0                 4           2             4    7     1       0.1330220525E+00       4    7    1         0.7339784013E+01      0.1797932381E+02
          0                 5           2             4    7     1      -0.5294484177E-02       5    8    1        -0.3003935799E+00      0.7357792365E+00
          0                 6           1             4    7     1       0.6533157458E-04       5    8    1         0.3810757332E-02      0.9340050288E-02

    ------------------------------------------------
       NWT REQUIRED            6 OUTER ITERATIONS 
       AND A TOTAL OF         11 INNER ITERATIONS.
    ------------------------------------------------

 NO OUTPUT CONTROL FOR STRESS PERIOD    9   TIME STEP    2
 
 SOLVING FOR HEAD 
                                                   Max.-Head-Change                         Max.-Flux-Residual
  Residual-Control   Outer-Iter.   Inner-Iter.     Column Row Layer    Maximum-Head-Change  Column Row Layer    Maximum-Flux-Residual          L2-NORM 
          0                 1           2             4   13     1       0.1496683222E-01       4   13    1         0.8622121054E+00      0.2356554177E+01
          0                 2           2             7   13     1      -0.2820521341E-02       7   13    1        -0.1564179571E+00      0.2770095044E+00
          0                 3           2             4    7     1      -0.1510403370E+00       4    7    1        -0.8107370167E+01      0.1991882729E+02
          0                 4           2             4    7     1       0.1330221237E+00       4    7    1         0.7339784440E+01      0.1797932816E+02
          0                 5           2             4    7     1      -0.5294484907E-02       5    8    1        -0.3003936075E+00      0.7357789930E+00
          0                 6           1             4    7     1       0.6533158332E-04       5    8    1         0.3810757647E-02      0.9340019520E-02

    ------------------------------------------------
       NWT REQUIRED            6 OUTER ITERATIONS 
       AND A TOTAL OF         11 INNER ITERATIONS.
    ------------------------------------------------

 NO OUTPUT CONTROL FOR STRESS PERIOD    9   TIME STEP    3
 
 SOLVING FOR HEAD 
                                                   Max.-Head-Change                         Max.-Flux-Residual
  Residual-Control   Outer-Iter.   Inner-Iter.     Column Row Layer    Maximum-Head-Change  Column Row Layer    Maximum-Flux-Residual          L2-NORM 
          0                 1           2             4   13     1       0.1502409513E-01       4   13    1         0.8654751984E+00      0.2372534310E+01
          0                 2           2             7   13     1      -0.2826937540E-02       7   13    1        -0.1567725541E+00      0.2785134329E+00
          0                 3           2             4    7     1      -0.1510406413E+00       4    7    1        -0.8107381670E+01      0.1991896027E+02
          0                 4           2             4    7     1       0.1330222010E+00       4    7    1         0.7339785248E+01      0.1797933335E+02
          0                 5           2             4    7     1      -0.5294487987E-02       5    8    1        -0.3003937658E+00      0.7357790948E+00
          0                 6           1             4    7     1       0.6533162140E-04       5    8    1         0.3810759615E-02      0.9340016190E-02

    ------------------------------------------------
       NWT REQUIRED            6 OUTER ITERATIONS 
       AND A TOTAL OF         11 INNER ITERATIONS.
    ------------------------------------------------

 NO OUTPUT CONTROL FOR STRESS PERIOD    9   TIME STEP    4
 
 SOLVING FOR HEAD 
                                                   Max.-Head-Change                         Max.-Flux-Residual
  Residual-Control   Outer-Iter.   Inner-Iter.     Column Row Layer    Maximum-Head-Change  Column Row Layer    Maximum-Flux-Residual          L2-NORM 
          0                 1           2             4   13     1       0.1507683441E-01       4   13    1         0.8684787137E+00      0.2388036178E+01
          0                 2           2             7   13     1      -0.2833187542E-02       7   13    1        -0.1571179392E+00      0.2799715691E+00
          0                 3           2             4    7     1      -0.1510409559E+00       4    7    1        -0.8107393805E+01      0.1991909109E+02
          0                 4           2             4    7     1       0.1330222848E+00       4    7    1         0.7339786458E+01      0.1797933937E+02
          0                 5           2             4    7     1      -0.5294493421E-02       5    8    1        -0.3003940554E+00      0.7357795118E+00
          0                 6           1             4    7     1       0.6533168816E-04       5    8    1         0.3810763251E-02      0.9339988692E-02

    ------------------------------------------------
       NWT REQUIRED            6 OUTER ITERATIONS 
       AND A TOTAL OF         11 INNER ITERATIONS.
    ------------------------------------------------

 NO OUTPUT CONTROL FOR STRESS PERIOD    9   TIME STEP    5
 
 SOLVING FOR HEAD 
                                                   Max.-Head-Change                         Max.-Flux-Residual
  Residual-Control   Outer-Iter.   Inner-Iter.     Column Row Layer    Maximum-Head-Change  Column Row Layer    Maximum-Flux-Residual          L2-NORM 
          0                 1           2             4   13     1       0.1512536841E-01       4   13    1         0.8712396416E+00      0.2403103025E+01
          0                 2           2             7   13     1      -0.2839256535E-02       7   13    1        -0.1574532920E+00      0.2813956691E+00
          0                 3           2             4    7     1      -0.1510412409E+00       4    7    1        -0.8107404419E+01      0.1991921413E+02
          0                 4           2             4    7     1       0.1330223464E+00       4    7    1         0.7339786489E+01      0.1797934240E+02
          0                 5           2             4    7     1      -0.5294493770E-02       5    8    1        -0.3003940543E+00      0.7357792311E+00
          0                 6           1             4    7     1       0.6533169242E-04       5    8    1         0.3810763186E-02      0.9339949115E-02

    ------------------------------------------------
       NWT REQUIRED            6 OUTER ITERATIONS 
       AND A TOTAL OF         11 INNER ITERATIONS.
    ------------------------------------------------

 NO OUTPUT CONTROL FOR STRESS PERIOD    9   TIME STEP    6
 
 SOLVING FOR HEAD 
                                                   Max.-Head-Change                         Max.-Flux-Residual
  Residual-Control   Outer-Iter.   Inner-Iter.     Column Row Layer    Maximum-Head-Change  Column Row Layer    Maximum-Flux-Residual          L2-NORM 
          0                 1           2             4   13     1       0.1517008897E-01       4   13    1         0.8737844855E+00      0.2417764289E+01
          0                 2           2             7   13     1      -0.2845201243E-02       7   13    1        -0.1577818180E+00      0.2827799282E+00
          0                 3           2             4    7     1      -0.1510415490E+00       4    7    1        -0.8107416340E+01      0.1991933705E+02
          0                 4           2             4    7     1       0.1330224218E+00       4    7    1         0.7339787326E+01      0.1797934751E+02
          0                 5           2             4    7     1      -0.5294496774E-02       5    8    1        -0.3003942016E+00      0.7357793378E+00
          0                 6           1             4    7     1       0.6533172961E-04       5    8    1         0.3810765008E-02      0.9339972314E-02

    ------------------------------------------------
       NWT REQUIRED            6 OUTER ITERATIONS 
       AND A TOTAL OF         11 INNER ITERATIONS.
    ------------------------------------------------

 NO OUTPUT CONTROL FOR STRESS PERIOD    9   TIME STEP    7
 
 SOLVING FOR HEAD 
                                                   Max.-Head-Change                         Max.-Flux-Residual
  Residual-Control   Outer-Iter.   Inner-Iter.     Column Row Layer    Maximum-Head-Change  Column Row Layer    Maximum-Flux-Residual          L2-NORM 
          0                 1           2             4   13     1       0.1521135127E-01       4   13    1         0.8761311048E+00      0.2432020064E+01
          0                 2           2             7   13     1      -0.2850970778E-02       7   13    1        -0.1581006209E+00      0.2841290873E+00
          0                 3           2             4    7     1      -0.1510418477E+00       4    7    1        -0.8107427837E+01      0.1991945491E+02
          0                 4           2             4    7     1       0.1330224959E+00       4    7    1         0.7339788134E+01      0.1797935231E+02
          0                 5           2             4    7     1      -0.5294499721E-02       5    8    1        -0.3003943439E+00      0.7357794139E+00
          0                 6           1             4    7     1       0.6533176590E-04       5    8    1         0.3810766771E-02      0.9339930624E-02

    ------------------------------------------------
       NWT REQUIRED            6 OUTER ITERATIONS 
       AND A TOTAL OF         11 INNER ITERATIONS.
    ------------------------------------------------

 NO OUTPUT CONTROL FOR STRESS PERIOD    9   TIME STEP    8
 
 SOLVING FOR HEAD 
                                                   Max.-Head-Change                         Max.-Flux-Residual
  Residual-Control   Outer-Iter.   Inner-Iter.     Column Row Layer    Maximum-Head-Change  Column Row Layer    Maximum-Flux-Residual          L2-NORM 
          0                 1           2             4   13     1       0.1524942433E-01       4   13    1         0.8782947200E+00      0.2445903242E+01
          0                 2           2             7   13     1      -0.2856602235E-02       7   13    1        -0.1584117812E+00      0.2854463686E+00
          0                 3           2             4    7     1      -0.1510421487E+00       4    7    1        -0.8107439513E+01      0.1991957025E+02
          0                 4           2             4    7     1       0.1330225760E+00       4    7    1         0.7339789311E+01      0.1797935796E+02
          0                 5           2             4    7     1      -0.5294502909E-02       5    8    1        -0.3003944983E+00      0.7357795440E+00
          0                 6           1             4    7     1       0.6533180556E-04       5    8    1         0.3810768707E-02      0.9339913290E-02

    ------------------------------------------------
       NWT REQUIRED            6 OUTER ITERATIONS 
       AND A TOTAL OF         11 INNER ITERATIONS.
    ------------------------------------------------

 NO OUTPUT CONTROL FOR STRESS PERIOD    9   TIME STEP    9
 
 SOLVING FOR HEAD 
                                                   Max.-Head-Change                         Max.-Flux-Residual
  Residual-Control   Outer-Iter.   Inner-Iter.     Column Row Layer    Maximum-Head-Change  Column Row Layer    Maximum-Flux-Residual          L2-NORM 
          0                 1           2             4   13     1       0.1528463598E-01       4   13    1         0.8802946532E+00      0.2459410580E+01
          0                 2           2             7   13     1      -0.2862103706E-02       7   13    1        -0.1587157635E+00      0.2867307040E+00
          0                 3           2             4    7     1      -0.1510424569E+00       4    7    1        -0.8107451655E+01      0.1991968339E+02
          0                 4           2             4    7     1       0.1330226494E+00       4    7    1         0.7339790164E+01      0.1797936274E+02
          0                 5           2             4    7     1      -0.5294505830E-02       5    8    1        -0.3003946358E+00      0.7357796441E+00
          0                 6           1             4    7     1       0.6533184140E-04       5    8    1         0.3810770428E-02      0.9339900995E-02

    ------------------------------------------------
       NWT REQUIRED            6 OUTER ITERATIONS 
       AND A TOTAL OF         11 INNER ITERATIONS.
    ------------------------------------------------

 NO OUTPUT CONTROL FOR STRESS PERIOD    9   TIME STEP   10
 
 SOLVING FOR HEAD 
                                                   Max.-Head-Change                         Max.-Flux-Residual
  Residual-Control   Outer-Iter.   Inner-Iter.     Column Row Layer    Maximum-Head-Change  Column Row Layer    Maximum-Flux-Residual          L2-NORM 
          0                 1           2             4   13     1       0.1531716771E-01       4   13    1         0.8821410171E+00      0.2472596454E+01
          0                 2           2             7   13     1      -0.2867465084E-02       7   13    1        -0.1590119981E+00      0.2879852851E+00
          0                 3           2             4    7     1      -0.1510427504E+00       4    7    1        -0.8107463064E+01      0.1991979177E+02
          0                 4           2             4    7     1       0.1330227212E+00       4    7    1         0.7339790965E+01      0.1797936730E+02
          0                 5           2             4    7     1      -0.5294508687E-02       5    8    1        -0.3003947681E+00      0.7357797287E+00
          0                 6           1             4    7     1       0.6533187680E-04       5    8    1         0.3810772066E-02      0.9339881364E-02

    ------------------------------------------------
       NWT REQUIRED            6 OUTER ITERATIONS 
       AND A TOTAL OF         11 INNER ITERATIONS.
    ------------------------------------------------

 NO OUTPUT CONTROL FOR STRESS PERIOD    9   TIME STEP   11
 
 SOLVING FOR HEAD 
                                                   Max.-Head-Change                         Max.-Flux-Residual
  Residual-Control   Outer-Iter.   Inner-Iter.     Column Row Layer    Maximum-Head-Change  Column Row Layer    Maximum-Flux-Residual          L2-NORM 
          0                 1           2             4   13     1       0.1534733082E-01       4   13    1         0.8838518432E+00      0.2485444406E+01
          0                 2           2             7   13     1      -0.2872691920E-02       7   13    1        -0.1593007757E+00      0.2892105180E+00
          0                 3           2             4    7     1      -0.1510430481E+00       4    7    1        -0.8107474769E+01      0.1991989797E+02
          0                 4           2             4    7     1       0.1330227991E+00       4    7    1         0.7339792144E+01      0.1797937271E+02
          0                 5           2             4    7     1      -0.5294513889E-02       5    8    1        -0.3003950322E+00      0.7357801403E+00
          0                 6           1             4    7     1       0.6533194087E-04       5    8    1         0.3810775361E-02      0.9339867598E-02

    ------------------------------------------------
       NWT REQUIRED            6 OUTER ITERATIONS 
       AND A TOTAL OF         11 INNER ITERATIONS.
    ------------------------------------------------

 NO OUTPUT CONTROL FOR STRESS PERIOD    9   TIME STEP   12
 
 SOLVING FOR HEAD 
                                                   Max.-Head-Change                         Max.-Flux-Residual
  Residual-Control   Outer-Iter.   Inner-Iter.     Column Row Layer    Maximum-Head-Change  Column Row Layer    Maximum-Flux-Residual          L2-NORM 
          0                 1           2             4   13     1       0.1537524582E-01       4   13    1         0.8854341376E+00      0.2497986235E+01
          0                 2           2             7   13     1      -0.2877789866E-02       7   13    1        -0.1595824322E+00      0.2904070771E+00
          0                 3           2             4    7     1      -0.1510433495E+00       4    7    1        -0.8107486736E+01      0.1992000208E+02
          0                 4           2             4    7     1       0.1330228701E+00       4    7    1         0.7339792984E+01      0.1797937721E+02
          0                 5           2             4    7     1      -0.5294516715E-02       5    8    1        -0.3003951602E+00      0.7357802344E+00
          0                 6           1             4    7     1       0.6533197560E-04       5    8    1         0.3810776961E-02      0.9339860118E-02

    ------------------------------------------------
       NWT REQUIRED            6 OUTER ITERATIONS 
       AND A TOTAL OF         11 INNER ITERATIONS.
    ------------------------------------------------

 NO OUTPUT CONTROL FOR STRESS PERIOD    9   TIME STEP   13
 
 SOLVING FOR HEAD 
                                                   Max.-Head-Change                         Max.-Flux-Residual
  Residual-Control   Outer-Iter.   Inner-Iter.     Column Row Layer    Maximum-Head-Change  Column Row Layer    Maximum-Flux-Residual          L2-NORM 
          0                 1           2             4   13     1       0.1540119919E-01       4   13    1         0.8869043850E+00      0.2510222529E+01
          0                 2           2             7   13     1      -0.2882764039E-02       7   13    1        -0.1598572435E+00      0.2915773280E+00
          0                 3           2             4    7     1      -0.1510436362E+00       4    7    1        -0.8107497979E+01      0.1992010178E+02
          0                 4           2             4    7     1       0.1330229266E+00       4    7    1         0.7339793058E+01      0.1797937977E+02
          0                 5           2             4    7     1      -0.5294516860E-02       5    8    1        -0.3003951349E+00      0.7357799565E+00
          0                 6           1             4    7     1       0.6533197739E-04       5    8    1         0.3810776611E-02      0.9339852495E-02

    ------------------------------------------------
       NWT REQUIRED            6 OUTER ITERATIONS 
       AND A TOTAL OF         11 INNER ITERATIONS.
    ------------------------------------------------

 NO OUTPUT CONTROL FOR STRESS PERIOD    9   TIME STEP   14
 
 SOLVING FOR HEAD 
                                                   Max.-Head-Change                         Max.-Flux-Residual
  Residual-Control   Outer-Iter.   Inner-Iter.     Column Row Layer    Maximum-Head-Change  Column Row Layer    Maximum-Flux-Residual          L2-NORM 
          0                 1           2             4   13     1       0.1542525292E-01       4   13    1         0.8882659375E+00      0.2522173068E+01
          0                 2           2             7   13     1      -0.2887614497E-02       7   13    1        -0.1601252055E+00      0.2927202961E+00
          0                 3           2             4    7     1      -0.1510439416E+00       4    7    1        -0.8107510274E+01      0.1992020181E+02
          0                 4           2             4    7     1       0.1330230097E+00       4    7    1         0.7339794636E+01      0.1797938595E+02
          0                 5           2             4    7     1      -0.5294522269E-02       5    8    1        -0.3003954070E+00      0.7357804014E+00
          0                 6           1             4    7     1       0.6533204460E-04       5    8    1         0.3810780001E-02      0.9339823868E-02

    ------------------------------------------------
       NWT REQUIRED            6 OUTER ITERATIONS 
       AND A TOTAL OF         11 INNER ITERATIONS.
    ------------------------------------------------

 NO OUTPUT CONTROL FOR STRESS PERIOD    9   TIME STEP   15
 
 SOLVING FOR HEAD 
                                                   Max.-Head-Change                         Max.-Flux-Residual
  Residual-Control   Outer-Iter.   Inner-Iter.     Column Row Layer    Maximum-Head-Change  Column Row Layer    Maximum-Flux-Residual          L2-NORM 
          0                 1           2             4   13     1       0.1544757816E-01       4   13    1         0.8895289187E+00      0.2533849394E+01
          0                 2           2             7   13     1      -0.2892365444E-02       7   13    1        -0.1603876865E+00      0.2938388599E+00
          0                 3           2             4    7     1      -0.1510442312E+00       4    7    1        -0.8107521790E+01      0.1992029751E+02
          0                 4           2             4    7     1       0.1330230781E+00       4    7    1         0.7339795444E+01      0.1797939018E+02
          0                 5           2             4    7     1      -0.5294524994E-02       5    8    1        -0.3003955257E+00      0.7357804854E+00
          0                 6           1             4    7     1       0.6533207798E-04       5    8    1         0.3810781477E-02      0.9339810635E-02

    ------------------------------------------------
       NWT REQUIRED            6 OUTER ITERATIONS 
       AND A TOTAL OF         11 INNER ITERATIONS.
    ------------------------------------------------

 NO OUTPUT CONTROL FOR STRESS PERIOD    9   TIME STEP   16
 
 SOLVING FOR HEAD 
                                                   Max.-Head-Change                         Max.-Flux-Residual
  Residual-Control   Outer-Iter.   Inner-Iter.     Column Row Layer    Maximum-Head-Change  Column Row Layer    Maximum-Flux-Residual          L2-NORM 
          0                 1           2             4   13     1       0.1546833077E-01       4   13    1         0.8907020711E+00      0.2545260828E+01
          0                 2           2             7   13     1      -0.2896987050E-02       7   13    1        -0.1606430081E+00      0.2949338663E+00
          0                 3           2             4    7     1      -0.1510445242E+00       4    7    1        -0.8107533556E+01      0.1992039127E+02
          0                 4           2             4    7     1       0.1330231397E+00       4    7    1         0.7339795911E+01      0.1797939349E+02
          0                 5           2             4    7     1      -0.5294525342E-02       5    8    1        -0.3003955090E+00      0.7357802348E+00
          0                 6           1             4    7     1       0.6533208201E-04       5    8    1         0.3810781232E-02      0.9339787235E-02

    ------------------------------------------------
       NWT REQUIRED            6 OUTER ITERATIONS 
       AND A TOTAL OF         11 INNER ITERATIONS.
    ------------------------------------------------

 NO OUTPUT CONTROL FOR STRESS PERIOD    9   TIME STEP   17
 
 SOLVING FOR HEAD 
                                                   Max.-Head-Change                         Max.-Flux-Residual
  Residual-Control   Outer-Iter.   Inner-Iter.     Column Row Layer    Maximum-Head-Change  Column Row Layer    Maximum-Flux-Residual          L2-NORM 
          0                 1           2             4   13     1       0.1548771578E-01       4   13    1         0.8917973146E+00      0.2556429334E+01
          0                 2           2             7   13     1      -0.2901514601E-02       7   13    1        -0.1608931197E+00      0.2960066267E+00
          0                 3           2             4    7     1      -0.1510448165E+00       4    7    1        -0.8107545329E+01      0.1992048314E+02
          0                 4           2             4    7     1       0.1330232072E+00       4    7    1         0.7339796737E+01      0.1797939764E+02
          0                 5           2             4    7     1      -0.5294528028E-02       5    8    1        -0.3003956235E+00      0.7357803267E+00
          0                 6           1             4    7     1       0.6533211517E-04       5    8    1         0.3810782630E-02      0.9339776460E-02

    ------------------------------------------------
       NWT REQUIRED            6 OUTER ITERATIONS 
       AND A TOTAL OF         11 INNER ITERATIONS.
    ------------------------------------------------

 NO OUTPUT CONTROL FOR STRESS PERIOD    9   TIME STEP   18
 
 SOLVING FOR HEAD 
                                                   Max.-Head-Change                         Max.-Flux-Residual
  Residual-Control   Outer-Iter.   Inner-Iter.     Column Row Layer    Maximum-Head-Change  Column Row Layer    Maximum-Flux-Residual          L2-NORM 
          0                 1           2             4   13     1       0.1550575830E-01       4   13    1         0.8928160105E+00      0.2567350245E+01
          0                 2           2             7   13     1      -0.2905936383E-02       7   13    1        -0.1611373870E+00      0.2970564592E+00
          0                 3           2             4    7     1      -0.1510451076E+00       4    7    1        -0.8107557086E+01      0.1992057311E+02
          0                 4           2             4    7     1       0.1330232677E+00       4    7    1         0.7339797204E+01      0.1797940084E+02
          0                 5           2             4    7     1      -0.5294530434E-02       5    8    1        -0.3003957217E+00      0.7357803627E+00
          0                 6           1             4    7     1       0.6533214497E-04       5    8    1         0.3810783857E-02      0.9339763792E-02

    ------------------------------------------------
       NWT REQUIRED            6 OUTER ITERATIONS 
       AND A TOTAL OF         11 INNER ITERATIONS.
    ------------------------------------------------

 NO OUTPUT CONTROL FOR STRESS PERIOD    9   TIME STEP   19
 
 SOLVING FOR HEAD 
                                                   Max.-Head-Change                         Max.-Flux-Residual
  Residual-Control   Outer-Iter.   Inner-Iter.     Column Row Layer    Maximum-Head-Change  Column Row Layer    Maximum-Flux-Residual          L2-NORM 
          0                 1           2             4   13     1       0.1552257799E-01       4   13    1         0.8937650636E+00      0.2578040444E+01
          0                 2           2             7   13     1      -0.2910255066E-02       7   13    1        -0.1613759628E+00      0.2980852052E+00
          0                 3           2             4    7     1      -0.1510454006E+00       4    7    1        -0.8107569014E+01      0.1992066138E+02
          0                 4           2             4    7     1       0.1330233341E+00       4    7    1         0.7339798041E+01      0.1797940490E+02
          0                 5           2             4    7     1      -0.5294533079E-02       5    8    1        -0.3003958325E+00      0.7357804616E+00
          0                 6           1             4    7     1       0.6533217745E-04       5    8    1         0.3810785226E-02      0.9339756672E-02

    ------------------------------------------------
       NWT REQUIRED            6 OUTER ITERATIONS 
       AND A TOTAL OF         11 INNER ITERATIONS.
    ------------------------------------------------

 NO OUTPUT CONTROL FOR STRESS PERIOD    9   TIME STEP   20
 
 SOLVING FOR HEAD 
                                                   Max.-Head-Change                         Max.-Flux-Residual
  Residual-Control   Outer-Iter.   Inner-Iter.     Column Row Layer    Maximum-Head-Change  Column Row Layer    Maximum-Flux-Residual          L2-NORM 
          0                 1           2             4   13     1       0.1553833701E-01       4   13    1         0.8946537806E+00      0.2588503630E+01
          0                 2           2             7   13     1      -0.2914470317E-02       7   13    1        -0.1616088112E+00      0.2990905298E+00
          0                 3           2             4    7     1      -0.1510456932E+00       4    7    1        -0.8107580974E+01      0.1992074796E+02
          0                 4           2             4    7     1       0.1330234065E+00       4    7    1         0.7339799237E+01      0.1797940976E+02
          0                 5           2             4    7     1      -0.5294535959E-02       5    8    1        -0.3003959559E+00      0.7357805681E+00
          0                 6           1             4    7     1       0.6533221329E-04       5    8    1         0.3810786755E-02      0.9339716516E-02

    ------------------------------------------------
       NWT REQUIRED            6 OUTER ITERATIONS 
       AND A TOTAL OF         11 INNER ITERATIONS.
    ------------------------------------------------

 NO OUTPUT CONTROL FOR STRESS PERIOD    9   TIME STEP   21
 
 SOLVING FOR HEAD 
                                                   Max.-Head-Change                         Max.-Flux-Residual
  Residual-Control   Outer-Iter.   Inner-Iter.     Column Row Layer    Maximum-Head-Change  Column Row Layer    Maximum-Flux-Residual          L2-NORM 
          0                 1           2             5    6     1       0.1558125224E-01       4   13    1         0.8954846960E+00      0.2598757856E+01
          0                 2           2             7   13     1      -0.2918592670E-02       7   13    1        -0.1618365277E+00      0.3000798056E+00
          0                 3           2             4    7     1      -0.1510459850E+00       4    7    1        -0.8107592943E+01      0.1992083253E+02
          0                 4           2             4    7     1       0.1330234718E+00       4    7    1         0.7339800076E+01      0.1797941370E+02
          0                 5           2             4    7     1      -0.5294538559E-02       5    8    1        -0.3003960625E+00      0.7357806536E+00
          0                 6           1             4    7     1       0.6533224556E-04       5    8    1         0.3810788062E-02      0.9339727288E-02

    ------------------------------------------------
       NWT REQUIRED            6 OUTER ITERATIONS 
       AND A TOTAL OF         11 INNER ITERATIONS.
    ------------------------------------------------

 NO OUTPUT CONTROL FOR STRESS PERIOD    9   TIME STEP   22
 
 SOLVING FOR HEAD 
                                                   Max.-Head-Change                         Max.-Flux-Residual
  Residual-Control   Outer-Iter.   Inner-Iter.     Column Row Layer    Maximum-Head-Change  Column Row Layer    Maximum-Flux-Residual          L2-NORM 
          0                 1           2             5    6     1       0.1564715706E-01       4   13    1         0.8962539291E+00      0.2608792658E+01
          0                 2           2             7   13     1      -0.2922633389E-02       7   13    1        -0.1620597319E+00      0.3010463866E+00
          0                 3           2             4    7     1      -0.1510462756E+00       4    7    1        -0.8107604894E+01      0.1992091555E+02
          0                 4           2             4    7     1       0.1330235431E+00       4    7    1         0.7339801272E+01      0.1797941847E+02
          0                 5           2             4    7     1      -0.5294543495E-02       5    8    1        -0.3003963011E+00      0.7357810582E+00
          0                 6           1             4    7     1       0.6533230604E-04       5    8    1         0.3810791064E-02      0.9339718565E-02

    ------------------------------------------------
       NWT REQUIRED            6 OUTER ITERATIONS 
       AND A TOTAL OF         11 INNER ITERATIONS.
    ------------------------------------------------

 NO OUTPUT CONTROL FOR STRESS PERIOD    9   TIME STEP   23
 
 SOLVING FOR HEAD 
                                                   Max.-Head-Change                         Max.-Flux-Residual
  Residual-Control   Outer-Iter.   Inner-Iter.     Column Row Layer    Maximum-Head-Change  Column Row Layer    Maximum-Flux-Residual          L2-NORM 
          0                 1           2             5    6     1       0.1571243610E-01       4   13    1         0.8969855530E+00      0.2618640898E+01
          0                 2           2             7   13     1      -0.2926568631E-02       7   13    1        -0.1622771123E+00      0.3019969168E+00
          0                 3           2             4    7     1      -0.1510465626E+00       4    7    1        -0.8107616702E+01      0.1992099681E+02
          0                 4           2             4    7     1       0.1330235942E+00       4    7    1         0.7339801384E+01      0.1797942053E+02
          0                 5           2             4    7     1      -0.5294543428E-02       5    8    1        -0.3003962556E+00      0.7357807849E+00
          0                 6           1             4    7     1       0.6533230537E-04       5    8    1         0.3810790444E-02      0.9339713829E-02

    ------------------------------------------------
       NWT REQUIRED            6 OUTER ITERATIONS 
       AND A TOTAL OF         11 INNER ITERATIONS.
    ------------------------------------------------

 NO OUTPUT CONTROL FOR STRESS PERIOD    9   TIME STEP   24
 
 SOLVING FOR HEAD 
                                                   Max.-Head-Change                         Max.-Flux-Residual
  Residual-Control   Outer-Iter.   Inner-Iter.     Column Row Layer    Maximum-Head-Change  Column Row Layer    Maximum-Flux-Residual          L2-NORM 
          0                 1           2             5    6     1       0.1577678773E-01       4   13    1         0.8976634826E+00      0.2628288868E+01
          0                 2           2             7   13     1      -0.2930431412E-02       7   13    1        -0.1624904962E+00      0.3029280657E+00
          0                 3           2             4    7     1      -0.1510468494E+00       4    7    1        -0.8107628553E+01      0.1992107636E+02
          0                 4           2             4    7     1       0.1330236642E+00       4    7    1         0.7339802573E+01      0.1797942518E+02
          0                 5           2             4    7     1      -0.5294546213E-02       5    8    1        -0.3003963710E+00      0.7357808895E+00
          0                 6           1             4    7     1       0.6533233965E-04       5    8    1         0.3810791866E-02      0.9339692640E-02

    ------------------------------------------------
       NWT REQUIRED            6 OUTER ITERATIONS 
       AND A TOTAL OF         11 INNER ITERATIONS.
    ------------------------------------------------

 NO OUTPUT CONTROL FOR STRESS PERIOD    9   TIME STEP   25
 
 SOLVING FOR HEAD 
                                                   Max.-Head-Change                         Max.-Flux-Residual
  Residual-Control   Outer-Iter.   Inner-Iter.     Column Row Layer    Maximum-Head-Change  Column Row Layer    Maximum-Flux-Residual          L2-NORM 
          0                 1           2             5    6     1       0.1584052366E-01       4   13    1         0.8982990000E+00      0.2637744797E+01
          0                 2           2             7   13     1      -0.2934192066E-02       7   13    1        -0.1626982209E+00      0.3038404285E+00
          0                 3           2             4    7     1      -0.1510471515E+00       4    7    1        -0.8107641268E+01      0.1992115666E+02
          0                 4           2             4    7     1       0.1330237347E+00       4    7    1         0.7339803821E+01      0.1797942992E+02
          0                 5           2             4    7     1      -0.5294551122E-02       5    8    1        -0.3003966066E+00      0.7357813015E+00
          0                 6           1             4    7     1       0.6533240014E-04       5    8    1         0.3810794848E-02      0.9339683196E-02

    ------------------------------------------------
       NWT REQUIRED            6 OUTER ITERATIONS 
       AND A TOTAL OF         11 INNER ITERATIONS.
    ------------------------------------------------

 NO OUTPUT CONTROL FOR STRESS PERIOD    9   TIME STEP   26
 
 SOLVING FOR HEAD 
                                                   Max.-Head-Change                         Max.-Flux-Residual
  Residual-Control   Outer-Iter.   Inner-Iter.     Column Row Layer    Maximum-Head-Change  Column Row Layer    Maximum-Flux-Residual          L2-NORM 
          0                 1           2             5    6     1       0.1590364034E-01       4   13    1         0.8989004358E+00      0.2647032825E+01
          0                 2           2             7   13     1      -0.2937886143E-02       7   13    1        -0.1629022864E+00      0.3047384483E+00
          0                 3           2             4    7     1      -0.1510474328E+00       4    7    1        -0.8107652920E+01      0.1992123279E+02
          0                 4           2             4    7     1       0.1330237904E+00       4    7    1         0.7339804280E+01      0.1797943269E+02
          0                 5           2             4    7     1      -0.5294551238E-02       5    8    1        -0.3003965696E+00      0.7357810527E+00
          0                 6           1             4    7     1       0.6533240148E-04       5    8    1         0.3810794311E-02      0.9339671052E-02

    ------------------------------------------------
       NWT REQUIRED            6 OUTER ITERATIONS 
       AND A TOTAL OF         11 INNER ITERATIONS.
    ------------------------------------------------

 NO OUTPUT CONTROL FOR STRESS PERIOD    9   TIME STEP   27
 
 SOLVING FOR HEAD 
                                                   Max.-Head-Change                         Max.-Flux-Residual
  Residual-Control   Outer-Iter.   Inner-Iter.     Column Row Layer    Maximum-Head-Change  Column Row Layer    Maximum-Flux-Residual          L2-NORM 
          0                 1           2             5    6     1       0.1596582946E-01       4   13    1         0.8994600457E+00      0.2656134985E+01
          0                 2           2             7   13     1      -0.2941499088E-02       7   13    1        -0.1631018649E+00      0.3056187347E+00
          0                 3           2             4    7     1      -0.1510477109E+00       4    7    1        -0.8107664439E+01      0.1992130742E+02
          0                 4           2             4    7     1       0.1330238520E+00       4    7    1         0.7339805088E+01      0.1797943626E+02
          0                 5           2             4    7     1      -0.5294553687E-02       5    8    1        -0.3003966647E+00      0.7357811239E+00
          0                 6           1             4    7     1       0.6533243217E-04       5    8    1         0.3810795482E-02      0.9339658700E-02

    ------------------------------------------------
       NWT REQUIRED            6 OUTER ITERATIONS 
       AND A TOTAL OF         11 INNER ITERATIONS.
    ------------------------------------------------

 NO OUTPUT CONTROL FOR STRESS PERIOD    9   TIME STEP   28
 
 SOLVING FOR HEAD 
                                                   Max.-Head-Change                         Max.-Flux-Residual
  Residual-Control   Outer-Iter.   Inner-Iter.     Column Row Layer    Maximum-Head-Change  Column Row Layer    Maximum-Flux-Residual          L2-NORM 
          0                 1           2             5    6     1       0.1602712035E-01       4   13    1         0.8999907492E+00      0.2665074148E+01
          0                 2           2             7   13     1      -0.2945032422E-02       7   13    1        -0.1632970297E+00      0.3064825650E+00
          0                 3           2             4    7     1      -0.1510480031E+00       4    7    1        -0.8107676761E+01      0.1992138256E+02
          0                 4           2             4    7     1       0.1330239140E+00       4    7    1         0.7339805951E+01      0.1797943993E+02
          0                 5           2             4    7     1      -0.5294556156E-02       5    8    1        -0.3003967603E+00      0.7357812070E+00
          0                 6           1             4    7     1       0.6533246219E-04       5    8    1         0.3810796672E-02      0.9339653472E-02

    ------------------------------------------------
       NWT REQUIRED            6 OUTER ITERATIONS 
       AND A TOTAL OF         11 INNER ITERATIONS.
    ------------------------------------------------

 NO OUTPUT CONTROL FOR STRESS PERIOD    9   TIME STEP   29
 
 SOLVING FOR HEAD 
                                                   Max.-Head-Change                         Max.-Flux-Residual
  Residual-Control   Outer-Iter.   Inner-Iter.     Column Row Layer    Maximum-Head-Change  Column Row Layer    Maximum-Flux-Residual          L2-NORM 
          0                 1           2             5    6     1       0.1608782832E-01       4   13    1         0.9004900178E+00      0.2673852034E+01
          0                 2           2             7   13     1      -0.2948491534E-02       7   13    1        -0.1634881143E+00      0.3073321986E+00
          0                 3           2             4    7     1      -0.1510482912E+00       4    7    1        -0.8107688909E+01      0.1992145609E+02
          0                 4           2             4    7     1       0.1330239819E+00       4    7    1         0.7339807160E+01      0.1797944440E+02
          0                 5           2             4    7     1      -0.5294560958E-02       5    8    1        -0.3003969880E+00      0.7357816160E+00
          0                 6           1             4    7     1       0.6533252179E-04       5    8    1         0.3810799516E-02      0.9339645433E-02

    ------------------------------------------------
       NWT REQUIRED            6 OUTER ITERATIONS 
       AND A TOTAL OF         11 INNER ITERATIONS.
    ------------------------------------------------

 NO OUTPUT CONTROL FOR STRESS PERIOD    9   TIME STEP   30



 STREAM LISTING     PERIOD      9   STEP       30

 LAYER ROW COL. STREAM  RCH.  FLOW INTO     FLOW TO   FLOW OUT OF   OVRLND.     DIRECT     STREAM       STREAM     STREAM     STREAM   STREAMBED  STREAMBED
                SEG.NO.  NO.  STRM. RCH.    AQUIFER    STRM. RCH.    RUNOFF     PRECIP       ET          HEAD       DEPTH      WIDTH   CONDCTNC.   GRADIENT

   1    1    1     1     1    4.5750E+01  3.2289E-01   4.5427E+01  0.000E+00  0.000E+00  0.000E+00  1.09442E+03  1.372E+00  1.641E+01  7.386E-02  1.457E+00
   1    2    2     1     2    4.5427E+01  5.0023E-01   4.4927E+01  0.000E+00  0.000E+00  0.000E+00  1.08943E+03  1.369E+00  1.636E+01  1.145E-01  1.456E+00
   1    3    3     1     3    4.4927E+01  4.2678E-01   4.4500E+01  0.000E+00  0.000E+00  0.000E+00  1.08378E+03  1.366E+00  1.629E+01  9.776E-02  1.455E+00
   1    3    4     1     4    4.4500E+01  3.9314E-01   4.4107E+01  0.000E+00  0.000E+00  0.000E+00  1.07877E+03  1.363E+00  1.624E+01  9.011E-02  1.454E+00
   1    4    5     2     1    4.2107E+01  3.6245E-01   4.1744E+01  0.000E+00  0.000E+00  0.000E+00  1.07358E+03  1.647E+00  1.200E+01  7.800E-02  1.549E+00
   1    5    6     2     2    4.1744E+01  2.7835E-01   4.1466E+01  0.000E+00  0.000E+00  0.000E+00  1.06815E+03  1.639E+00  1.200E+01  6.000E-02  1.546E+00
   1    6    6     2     3    4.1466E+01  2.7796E-01   4.1188E+01  0.000E+00  0.000E+00  0.000E+00  1.06343E+03  1.633E+00  1.200E+01  6.000E-02  1.544E+00
   1    7    6     2     4    4.1188E+01  2.7756E-01   4.0910E+01  0.000E+00  0.000E+00  0.000E+00  1.05870E+03  1.626E+00  1.200E+01  6.000E-02  1.542E+00
   1    8    6     2     5    4.0910E+01  2.7717E-01   4.0633E+01  0.000E+00  0.000E+00  0.000E+00  1.05398E+03  1.619E+00  1.200E+01  6.000E-02  1.540E+00
   1    3    5     3     1    2.0000E+00  2.8252E-01   1.7175E+00  0.000E+00  0.000E+00  0.000E+00  1.07555E+03  1.909E+00  9.636E+00  7.227E-02  1.955E+00
   1    3    6     3     2    1.7175E+00  2.4905E-01   1.4684E+00  0.000E+00  0.000E+00  0.000E+00  1.07264E+03  1.727E+00  8.909E+00  6.682E-02  1.864E+00
   1    3    7     3     3    1.4684E+00  1.9718E-01   1.2712E+00  0.000E+00  0.000E+00  0.000E+00  1.06987E+03  1.555E+00  8.218E+00  5.547E-02  1.777E+00
   1    4    8     3     4    1.2712E+00  2.2567E-01   1.0456E+00  0.000E+00  0.000E+00  0.000E+00  1.06682E+03  1.364E+00  7.455E+00  6.709E-02  1.682E+00
   1    5    8     3     5    1.0456E+00  1.5790E-01   8.8768E-01  0.000E+00  0.000E+00  0.000E+00  1.06362E+03  1.164E+00  6.655E+00  4.991E-02  1.582E+00
   1    6    8     3     6    8.8768E-01  5.5980E-02   8.3170E-01  0.000E+00  0.000E+00  0.000E+00  1.06158E+03  1.036E+00  6.145E+00  1.844E-02  1.518E+00
   1    5   10     4     1    1.0000E+01  9.0919E-02   9.9091E+00  0.000E+00  0.000E+00  0.000E+00  1.07836E+03  6.368E-01  1.000E+01  2.500E-02  1.212E+00
   1    5    9     4     2    9.9091E+00  1.8158E-01   9.7275E+00  0.000E+00  0.000E+00  0.000E+00  1.07154E+03  6.315E-01  1.000E+01  5.000E-02  1.211E+00
   1    6    8     4     3    9.7275E+00  1.2689E-01   9.6006E+00  0.000E+00  0.000E+00  0.000E+00  1.06381E+03  6.256E-01  1.000E+01  3.500E-02  1.209E+00
   1    6    8     5     1    1.0432E+01  2.2686E-01   1.0205E+01  0.000E+00  0.000E+00  0.000E+00  1.05868E+03  6.790E-01  1.542E+01  6.166E-02  1.226E+00
   1    7    7     5     2    1.0205E+01  2.7894E-01   9.9265E+00  0.000E+00  0.000E+00  0.000E+00  1.05417E+03  6.732E-01  1.519E+01  7.594E-02  1.224E+00
   1    8    7     5     3    9.9265E+00  1.9221E-01   9.7343E+00  0.000E+00  0.000E+00  0.000E+00  1.04992E+03  6.676E-01  1.497E+01  5.241E-02  1.223E+00
   1    8    6     5     4    9.7343E+00  1.3577E-01   9.5985E+00  0.000E+00  0.000E+00  0.000E+00  1.04691E+03  6.637E-01  1.482E+01  3.706E-02  1.221E+00
   1    9    6     6     1    9.5985E+00  2.2097E-01   9.3776E+00  0.000E+00  0.000E+00  0.000E+00  1.04341E+03  6.828E-01  1.200E+01  6.000E-02  1.228E+00
   1   10    7     6     2    9.3776E+00  2.2039E-01   9.1572E+00  0.000E+00  0.000E+00  0.000E+00  1.03885E+03  6.732E-01  1.200E+01  6.000E-02  1.224E+00
   1   11    7     6     3    9.1572E+00  2.1981E-01   8.9374E+00  0.000E+00  0.000E+00  0.000E+00  1.03430E+03  6.636E-01  1.200E+01  6.000E-02  1.221E+00
   1   12    7     6     4    8.9374E+00  2.1923E-01   8.7181E+00  0.000E+00  0.000E+00  0.000E+00  1.02974E+03  6.539E-01  1.200E+01  6.000E-02  1.218E+00
   1   13    7     6     5    8.7181E+00 -1.2692E-01   8.8451E+00  0.000E+00  0.000E+00  0.000E+00  1.02656E+03  6.518E-01  1.200E+01  2.400E-01 -1.763E-01
   1   14    9     7     1    1.5000E+02  1.3358E+00   1.4866E+02  0.000E+00  0.000E+00  0.000E+00  1.03987E+03  2.288E+00  5.529E+01  5.593E-01  7.961E-01
   1   13    8     7     2    1.4866E+02  1.8235E+00   1.4684E+02  0.000E+00  0.000E+00  0.000E+00  1.03478E+03  2.279E+00  5.526E+01  6.148E-01  9.887E-01
   1   13    7     7     3    1.4684E+02  1.4521E+00   1.4539E+02  0.000E+00  0.000E+00  0.000E+00  1.02969E+03  2.271E+00  5.522E+01  5.585E-01  8.667E-01
   1   13    6     8     1    1.5423E+02  8.0439E-01   1.5343E+02  0.000E+00  0.000E+00  0.000E+00  1.02472E+03  2.844E+00  4.123E+01  4.202E-01  6.381E-01
   1   13    5     8     2    1.5343E+02  8.0538E-02   1.5335E+02  0.000E+00  0.000E+00  0.000E+00  1.01847E+03  2.841E+00  4.119E+01  4.197E-01  6.396E-02
   1   13    4     8     3    1.5335E+02 -2.7338E+00   1.5608E+02  0.000E+00  0.000E+00  0.000E+00  1.01222E+03  2.850E+00  4.132E+01  4.211E+00 -2.164E-01
   1   13    3     8     4    1.5608E+02 -3.7867E+00   1.5987E+02  0.000E+00  0.000E+00  0.000E+00  1.00600E+03  2.872E+00  4.165E+01  4.244E+00 -2.974E-01
   1   13    2     8     5    1.5987E+02 -2.6239E+00   1.6249E+02  0.000E+00  0.000E+00  0.000E+00  9.99769E+02  2.894E+00  4.196E+01  4.276E+00 -2.045E-01
   1   13    1     8     6    1.6249E+02 -2.0104E+00   1.6450E+02  0.000E+00  0.000E+00  0.000E+00  9.94784E+02  2.909E+00  4.219E+01  2.579E+00 -2.598E-01
   1    8    6     9     1    4.0633E+01  0.0000E+00   4.0633E+01  0.000E+00  0.000E+00  0.000E+00  1.08401E+03  5.255E+00  4.000E+00  0.000E+00  2.752E+00
   1    8    5     9     2    4.0633E+01  0.0000E+00   4.0633E+01  0.000E+00  0.000E+00  0.000E+00  1.08351E+03  5.255E+00  4.000E+00  0.000E+00  2.752E+00





UNSATURATED ZONE PACKAGE VOLUMETRIC BUDGET FOR  TIME STEP    30 STRESS PERIOD    9
  ------------------------------------------------------------------------------



     CUMULATIVE VOLUMES      L**3       RATES FOR THIS TIME STEP      L**3/T
     ------------------                 ------------------------

           IN:                                      IN:
           ---                                      ---
        INFILTRATION =   396556731.8386          INFILTRATION =          49.5226

          OUT:                                     OUT:
          ----                                     ----
              UZF ET =   392114243.2999                UZF ET =          49.5675
        UZF RECHARGE =       73224.0000          UZF RECHARGE =       0.0000E+00

            IN - OUT =     4369264.5388              IN - OUT =      -4.4907E-02

          STORAGE:                                 STORAGE:
          --------                                 --------
      STORAGE CHANGE =     4369467.7216        STORAGE CHANGE =      -4.4909E-02

 PERCENT DISCREPANCY IS DIFFERENCE BETWEEN IN-OUT MINUS CHANGE IN STORAGE
 DIVIDED BY THE AVERAGE OF IN AND OUT TIMES 100

 PERCENT DISCREPANCY =          -0.00     PERCENT DISCREPANCY =           0.00






1
  VOLUMETRIC BUDGET FOR AGRICULTURAL FIELDS AT  END OF TIME STEP   30, STRESS PERIOD   9
  ------------------------------------------------------------------------------

     CUMULATIVE VOLUMES      L**3       RATES FOR THIS TIME STEP      L**3/T
     ------------------                 ------------------------

           IN:                                      IN:
           ---                                      ---
               AG WELLS  =    49128108.0000                 AG WELLS  =           8.0412
      DIVERSION SEGMENTS =   329550656.0000        DIVERSION SEGMENTS =          40.6331
       IRRIGATION PONDS  =           0.0000         IRRIGATION PONDS  =           0.0000
           GW IRRIGATION =           0.0000             GW IRRIGATION =           0.0000
           SW IRRIGATION =           0.0000             SW IRRIGATION =           0.0000
        SYSTEM LOSSES GW =           0.0000          SYSTEM LOSSES GW =           0.0000
        SYSTEM LOSSES SW =           0.0000          SYSTEM LOSSES SW =           0.0000

                TOTAL IN =   378678752.0000                  TOTAL IN =          48.6743

          OUT:                                     OUT:
          ----                                     ----
               AG WELLS  =           0.0000                 AG WELLS  =           0.0000
      DIVERSION SEGMENTS =           0.0000        DIVERSION SEGMENTS =           0.0000
       IRRIGATION PONDS  =           0.0000         IRRIGATION PONDS  =           0.0000
           GW IRRIGATION =    49128108.0000             GW IRRIGATION =           8.0412
           SW IRRIGATION =   329557184.0000             SW IRRIGATION =          40.6339
        SYSTEM LOSSES GW =           0.0000          SYSTEM LOSSES GW =           0.0000
        SYSTEM LOSSES SW =           0.0000          SYSTEM LOSSES SW =           0.0000

               TOTAL OUT =   378685280.0000                 TOTAL OUT =          48.6751

                IN - OUT =       -6528.0000                  IN - OUT =      -8.0872E-04

     PERCENT DISCREPANCY =          -0.00         PERCENT DISCREPANCY =          -0.00



1
  VOLUMETRIC BUDGET FOR ENTIRE MODEL AT END OF TIME STEP   30, STRESS PERIOD   9
  ------------------------------------------------------------------------------

     CUMULATIVE VOLUMES      L**3       RATES FOR THIS TIME STEP      L**3/T
     ------------------                 ------------------------

           IN:                                      IN:
           ---                                      ---
             STORAGE     =    65436464.0000               STORAGE     =           8.2149
       CONSTANT HEAD     =           0.0000         CONSTANT HEAD     =           0.0000
     HEAD DEP BOUNDS     =     6036443.5000       HEAD DEP BOUNDS     =           0.2858
      STREAM LEAKAGE     =   257395872.0000        STREAM LEAKAGE     =          11.8946
        UZF RECHARGE     =       73223.9531          UZF RECHARGE     =           0.0000
               GW ET     =           0.0000                 GW ET     =           0.0000
     SURFACE LEAKAGE     =           0.0000       SURFACE LEAKAGE     =           0.0000
           AG WELLS      =           0.0000             AG WELLS      =           0.0000

                TOTAL IN =   328941984.0000                  TOTAL IN =          20.3953

          OUT:                                     OUT:
          ----                                     ----
             STORAGE     =    43047108.0000               STORAGE     =           0.7847
       CONSTANT HEAD     =           0.0000         CONSTANT HEAD     =           0.0000
     HEAD DEP BOUNDS     =     6153854.5000       HEAD DEP BOUNDS     =           0.2874
      STREAM LEAKAGE     =   229075648.0000        STREAM LEAKAGE     =          11.2817
        UZF RECHARGE     =           0.0000          UZF RECHARGE     =           0.0000
               GW ET     =     1538617.0000                 GW ET     =           0.0000
     SURFACE LEAKAGE     =           0.0000       SURFACE LEAKAGE     =           0.0000
           AG WELLS      =    49128108.0000             AG WELLS      =           8.0412

               TOTAL OUT =   328943328.0000                 TOTAL OUT =          20.3949

                IN - OUT =       -1344.0000                  IN - OUT =       3.3951E-04

     PERCENT DISCREPANCY =          -0.00         PERCENT DISCREPANCY =           0.00






         TIME SUMMARY AT END OF TIME STEP   30 IN STRESS PERIOD    9
                    SECONDS     MINUTES      HOURS       DAYS        YEARS
                    -----------------------------------------------------------
   TIME STEP LENGTH  87667.      1461.1      24.352      1.0147     2.77799E-03
 STRESS PERIOD TIME 2.63000E+06  43833.      730.56      30.440     8.33397E-02
         TOTAL TIME 2.11264E+07 3.52107E+05  5868.4      244.52     0.66945    
1
1
                            STRESS PERIOD NO.   10, LENGTH =   2630000.    
                            -----------------------------------------------

                              NUMBER OF TIME STEPS =    30

                               MULTIPLIER FOR DELT =     1.000

                            INITIAL TIME STEP SIZE =   87666.66    

 REUSING NON-PARAMETER GHB CELLS FROM LAST STRESS PERIOD

      2 GHB CELLS

 REUSING STREAM SEGMENT DATA FROM LAST STRESS PERIOD



            AREAL INFILTRATION RATE
 READING ON UNIT   19 WITH FORMAT: (FREE)              

            1           2           3           4           5           6           7           8           9          10
 ........................................................................................................................
   1   1.0000E-10  2.0000E-10   0.000       0.000       0.000       0.000       0.000       0.000       0.000       0.000    
   2   2.0000E-10  1.0000E-10  2.0000E-10   0.000       0.000      8.0000E-10  8.0000E-10  5.0000E-10   0.000       0.000    
   3    0.000      5.0000E-10  1.0000E-10  1.0000E-10  8.0000E-10  8.0000E-10  5.0000E-10  5.0000E-10   0.000       0.000    
   4   8.0000E-10  5.0000E-10  1.0000E-10  1.0000E-10  1.0000E-10  1.0000E-10  1.0000E-10  1.0000E-10  2.0000E-10   0.000    
   5   8.0000E-10  5.0000E-10  1.0000E-10  1.0000E-10  1.0000E-10  1.0000E-10  1.0000E-10  1.0000E-10  1.0000E-10  1.0000E-10
   6   8.0000E-10  5.0000E-10  5.0000E-10  2.0000E-10  2.0000E-10  1.0000E-10  1.0000E-10  1.0000E-10  1.0000E-10  5.0000E-10
   7   8.0000E-10  5.0000E-10  5.0000E-10  2.0000E-10  2.0000E-10  1.0000E-10  1.0000E-10  2.0000E-10  2.0000E-10   0.000    
   8    0.000      5.0000E-10  5.0000E-10  2.0000E-10  2.0000E-10  1.0000E-10  1.0000E-10  2.0000E-10  5.0000E-10   0.000    
   9    0.000      5.0000E-10  5.0000E-10  2.0000E-10  2.0000E-10  1.0000E-10  1.0000E-10  2.0000E-10  5.0000E-10   0.000    
  10    0.000      5.0000E-10  5.0000E-10  2.0000E-10  2.0000E-10  1.0000E-10  1.0000E-10  2.0000E-10  5.0000E-10  8.0000E-10
  11    0.000      1.0000E-10  1.0000E-10  1.0000E-10  1.0000E-10  1.0000E-10  1.0000E-10  2.0000E-10  5.0000E-10   0.000    
  12   1.0000E-10  1.0000E-10  1.0000E-10  1.0000E-10  1.0000E-10  1.0000E-10  1.0000E-10  1.0000E-10  2.0000E-10   0.000    
  13   1.0000E-10  1.0000E-10  2.0000E-10  2.0000E-10  2.0000E-10  2.0000E-10  2.0000E-10  1.0000E-10  1.0000E-10   0.000    
  14    0.000      2.0000E-10  5.0000E-10  5.0000E-10  5.0000E-10  5.0000E-10  5.0000E-10  2.0000E-10  1.0000E-10   0.000    
  15    0.000       0.000      8.0000E-10  8.0000E-10  8.0000E-10  8.0000E-10   0.000       0.000       0.000       0.000    

                  ET RATE =  7.500000E-08

 USING ET EXTINCTION DEPTH FROM PREVIOUS STRESS PERIOD. CURRENT PERIOD IS:      10

 USING EXTINCTION WATER CONTENT FROM PREVIOUS STRESS PERIOD. CURRENT PERIOD IS:      10

 USING AIR ENTRY PRESSURE FROM PREVIOUS STRESS PERIOD. CURRENT PERIOD IS:      10

 USING ROOT PRESSURE HEAD FROM PREVIOUS STRESS PERIOD. CURRENT PERIOD IS:      10

 USING ROOT ACTIVITY FROM PREVIOUS STRESS PERIOD. CURRENT PERIOD IS:      10

 PROCESSING AG STRESS PERIOD DATA

 READING AG STRESS PERIOD DATA

 READING IRRIGATION SEGMENT

 READING IRRIGATION WELL

 READING SUPPLEMENTAL WELL

 NO IRRPOND OR REUSING IRRPOND DATA FROM LAST STRESS PERIOD

 END PROCESSING AG STRESS PERIOD DATA OPTIONS
 
 SOLVING FOR HEAD 
                                                   Max.-Head-Change                         Max.-Flux-Residual
  Residual-Control   Outer-Iter.   Inner-Iter.     Column Row Layer    Maximum-Head-Change  Column Row Layer    Maximum-Flux-Residual          L2-NORM 
          0                 1           2             5    6     1       0.1614699270E-01       5    6    1         0.8740324255E+00      0.2412662464E+01
          0                 2           2             7   13     1      -0.1644352584E-02       7   13    1        -0.9117861542E-01      0.2549252769E+00
          0                 3           2             7   13     1       0.1119443547E-03       7   13    1         0.6380837877E-02      0.1772545520E-01
          0                 4           1             7   13     1      -0.4451997431E-05       7   13    1        -0.2608400628E-03      0.7173091800E-03

    ------------------------------------------------
       NWT REQUIRED            4 OUTER ITERATIONS 
       AND A TOTAL OF          7 INNER ITERATIONS.
    ------------------------------------------------

 NO OUTPUT CONTROL FOR STRESS PERIOD   10   TIME STEP    1
 
 SOLVING FOR HEAD 
                                                   Max.-Head-Change                         Max.-Flux-Residual
  Residual-Control   Outer-Iter.   Inner-Iter.     Column Row Layer    Maximum-Head-Change  Column Row Layer    Maximum-Flux-Residual          L2-NORM 
          0                 1           2             5    6     1       0.1551207216E-01       5    6    1         0.8391993456E+00      0.2361803986E+01
          0                 2           2             5    6     1      -0.1508898453E-02       5    6    1        -0.8391971296E-01      0.2347652869E+00
          0                 3           2             4    7     1      -0.3460710719E-01       4    7    1        -0.1857585438E+01      0.4569392773E+01
          0                 4           2             4    7     1       0.3610883738E-01       4    7    1         0.1992364451E+01      0.4880277920E+01
          0                 5           2             4    7     1      -0.1437153301E-02       5    8    1        -0.8153194761E-01      0.1997006287E+00
          0                 6           1             4    7     1       0.1773386648E-04       5    8    1         0.1034320691E-02      0.2533533759E-02

    ------------------------------------------------
       NWT REQUIRED            6 OUTER ITERATIONS 
       AND A TOTAL OF         11 INNER ITERATIONS.
    ------------------------------------------------

 NO OUTPUT CONTROL FOR STRESS PERIOD   10   TIME STEP    2
 
 SOLVING FOR HEAD 
                                                   Max.-Head-Change                         Max.-Flux-Residual
  Residual-Control   Outer-Iter.   Inner-Iter.     Column Row Layer    Maximum-Head-Change  Column Row Layer    Maximum-Flux-Residual          L2-NORM 
          0                 1           2             5    6     1       0.1491377222E-01       5    6    1         0.8062132575E+00      0.2282886864E+01
          0                 2           2             5    6     1      -0.1450700441E-02       5    6    1        -0.8062112189E-01      0.2269608584E+00
          0                 3           2             4    7     1      -0.3461085909E-01       4    7    1        -0.1857782060E+01      0.4570153129E+01
          0                 4           2             4    7     1       0.3611251573E-01       4    7    1         0.1992566916E+01      0.4880796276E+01
          0                 5           2             4    7     1      -0.1437299702E-02       5    8    1        -0.8154087943E-01      0.1997218357E+00
          0                 6           1             4    7     1       0.1773567308E-04       5    8    1         0.1034433969E-02      0.2533804920E-02

    ------------------------------------------------
       NWT REQUIRED            6 OUTER ITERATIONS 
       AND A TOTAL OF         11 INNER ITERATIONS.
    ------------------------------------------------

 NO OUTPUT CONTROL FOR STRESS PERIOD   10   TIME STEP    3
 
 SOLVING FOR HEAD 
                                                   Max.-Head-Change                         Max.-Flux-Residual
  Residual-Control   Outer-Iter.   Inner-Iter.     Column Row Layer    Maximum-Head-Change  Column Row Layer    Maximum-Flux-Residual          L2-NORM 
          0                 1           2             5    6     1       0.1434923755E-01       5    6    1         0.7751089952E+00      0.2209012567E+01
          0                 2           2             5    6     1      -0.1395786848E-02       5    6    1        -0.7751071191E-01      0.2196501274E+00
          0                 3           2             4    7     1      -0.3461452416E-01       4    7    1        -0.1857974402E+01      0.4570882543E+01
          0                 4           2             4    7     1       0.3611602960E-01       4    7    1         0.1992760379E+01      0.4881290906E+01
          0                 5           2             4    7     1      -0.1437439556E-02       5    8    1        -0.8154939003E-01      0.1997420779E+00
          0                 6           1             4    7     1       0.1773739835E-04       5    8    1         0.1034541880E-02      0.2534063993E-02

    ------------------------------------------------
       NWT REQUIRED            6 OUTER ITERATIONS 
       AND A TOTAL OF         11 INNER ITERATIONS.
    ------------------------------------------------

 NO OUTPUT CONTROL FOR STRESS PERIOD   10   TIME STEP    4
 
 SOLVING FOR HEAD 
                                                   Max.-Head-Change                         Max.-Flux-Residual
  Residual-Control   Outer-Iter.   Inner-Iter.     Column Row Layer    Maximum-Head-Change  Column Row Layer    Maximum-Flux-Residual          L2-NORM 
          0                 1           2             5    6     1       0.1381642594E-01       5    6    1         0.7457720079E+00      0.2139754288E+01
          0                 2           2             5    6     1      -0.1343959025E-02       5    6    1        -0.7457702812E-01      0.2127931319E+00
          0                 3           2             4    7     1      -0.3461811970E-01       4    7    1        -0.1858163382E+01      0.4571583866E+01
          0                 4           2             4    7     1       0.3611939963E-01       4    7    1         0.1992945978E+01      0.4881764656E+01
          0                 5           2             4    7     1      -0.1437573686E-02       5    8    1        -0.8155752906E-01      0.1997614532E+00
          0                 6           1             4    7     1       0.1773905394E-04       5    8    1         0.1034645087E-02      0.2534306374E-02

    ------------------------------------------------
       NWT REQUIRED            6 OUTER ITERATIONS 
       AND A TOTAL OF         11 INNER ITERATIONS.
    ------------------------------------------------

 NO OUTPUT CONTROL FOR STRESS PERIOD   10   TIME STEP    5
 
 SOLVING FOR HEAD 
                                                   Max.-Head-Change                         Max.-Flux-Residual
  Residual-Control   Outer-Iter.   Inner-Iter.     Column Row Layer    Maximum-Head-Change  Column Row Layer    Maximum-Flux-Residual          L2-NORM 
          0                 1           2             5    6     1       0.1331286032E-01       5    6    1         0.7180632597E+00      0.2074710501E+01
          0                 2           2             5    6     1      -0.1294976020E-02       5    6    1        -0.7180616703E-01      0.2063517575E+00
          0                 3           2             4    7     1      -0.3462163958E-01       4    7    1        -0.1858348649E+01      0.4572257270E+01
          0                 4           2             4    7     1       0.3612262547E-01       5    8    1         0.1993126337E+01      0.4882217586E+01
          0                 5           2             4    7     1      -0.1437702077E-02       5    8    1        -0.8156529924E-01      0.1997799910E+00
          0                 6           1             4    7     1       0.1774063784E-04       5    8    1         0.1034743616E-02      0.2534543436E-02

    ------------------------------------------------
       NWT REQUIRED            6 OUTER ITERATIONS 
       AND A TOTAL OF         11 INNER ITERATIONS.
    ------------------------------------------------

 NO OUTPUT CONTROL FOR STRESS PERIOD   10   TIME STEP    6
 
 SOLVING FOR HEAD 
                                                   Max.-Head-Change                         Max.-Flux-Residual
  Residual-Control   Outer-Iter.   Inner-Iter.     Column Row Layer    Maximum-Head-Change  Column Row Layer    Maximum-Flux-Residual          L2-NORM 
          0                 1           2             5    7     1       0.1299542244E-01       5    6    1         0.6919206169E+00      0.2013569846E+01
          0                 2           2             5    7     1      -0.1264099377E-02       5    6    1        -0.6919191538E-01      0.2002948906E+00
          0                 3           2             4    7     1      -0.3462509209E-01       4    7    1        -0.1858530618E+01      0.4572905438E+01
          0                 4           2             4    7     1       0.3612572506E-01       5    8    1         0.1993308346E+01      0.4882652212E+01
          0                 5           2             4    7     1      -0.1437825442E-02       5    8    1        -0.8157274484E-01      0.1997977669E+00
          0                 6           1             4    7     1       0.1774216014E-04       5    8    1         0.1034838039E-02      0.2534768961E-02

    ------------------------------------------------
       NWT REQUIRED            6 OUTER ITERATIONS 
       AND A TOTAL OF         11 INNER ITERATIONS.
    ------------------------------------------------

 NO OUTPUT CONTROL FOR STRESS PERIOD   10   TIME STEP    7
 
 SOLVING FOR HEAD 
                                                   Max.-Head-Change                         Max.-Flux-Residual
  Residual-Control   Outer-Iter.   Inner-Iter.     Column Row Layer    Maximum-Head-Change  Column Row Layer    Maximum-Flux-Residual          L2-NORM 
          0                 1           2             5    7     1       0.1272792296E-01       5    7    1         0.6754083297E+00      0.1955978264E+01
          0                 2           2             5    7     1      -0.1238079208E-02       5    7    1        -0.6754078366E-01      0.1945851024E+00
          0                 3           2             4    7     1      -0.3462847743E-01       5    8    1        -0.1858757366E+01      0.4573529147E+01
          0                 4           2             4    7     1       0.3612869842E-01       5    8    1         0.1993482474E+01      0.4883068594E+01
          0                 5           2             4    7     1      -0.1437943784E-02       5    8    1        -0.8157986819E-01      0.1998148085E+00
          0                 6           1             4    7     1       0.1774362038E-04       5    8    1         0.1034928385E-02      0.2534982971E-02

    ------------------------------------------------
       NWT REQUIRED            6 OUTER ITERATIONS 
       AND A TOTAL OF         11 INNER ITERATIONS.
    ------------------------------------------------

 NO OUTPUT CONTROL FOR STRESS PERIOD   10   TIME STEP    8
 
 SOLVING FOR HEAD 
                                                   Max.-Head-Change                         Max.-Flux-Residual
  Residual-Control   Outer-Iter.   Inner-Iter.     Column Row Layer    Maximum-Head-Change  Column Row Layer    Maximum-Flux-Residual          L2-NORM 
          0                 1           2             4    7     1       0.1252597443E-01       5    7    1         0.6615056103E+00      0.1901680873E+01
          0                 2           2             4    7     1      -0.1218435979E-02       5    7    1        -0.6615052627E-01      0.1892009584E+00
          0                 3           2             4    7     1      -0.3463180009E-01       5    8    1        -0.1859067151E+01      0.4574130162E+01
          0                 4           2             4    7     1       0.3613155889E-01       5    8    1         0.1993649525E+01      0.4883468644E+01
          0                 5           2             4    7     1      -0.1438057633E-02       5    8    1        -0.8158670209E-01      0.1998311764E+00
          0                 6           1             4    7     1       0.1774502528E-04       5    8    1         0.1035015031E-02      0.2535190257E-02

    ------------------------------------------------
       NWT REQUIRED            6 OUTER ITERATIONS 
       AND A TOTAL OF         11 INNER ITERATIONS.
    ------------------------------------------------

 NO OUTPUT CONTROL FOR STRESS PERIOD   10   TIME STEP    9
 
 SOLVING FOR HEAD 
                                                   Max.-Head-Change                         Max.-Flux-Residual
  Residual-Control   Outer-Iter.   Inner-Iter.     Column Row Layer    Maximum-Head-Change  Column Row Layer    Maximum-Flux-Residual          L2-NORM 
          0                 1           2             4    7     1       0.1242891308E-01       4    7    1         0.6508385658E+00      0.1850405299E+01
          0                 2           2             4    7     1      -0.1208994769E-02       4    7    1        -0.6508388128E-01      0.1841147980E+00
          0                 3           2             4    7     1      -0.3463506163E-01       5    8    1        -0.1859362078E+01      0.4574709503E+01
          0                 4           2             4    7     1       0.3613431094E-01       5    8    1         0.1993809819E+01      0.4883853016E+01
          0                 5           2             4    7     1      -0.1438167167E-02       5    8    1        -0.8159325964E-01      0.1998469072E+00
          0                 6           1             4    7     1       0.1774637731E-04       5    8    1         0.1035098197E-02      0.2535393896E-02

    ------------------------------------------------
       NWT REQUIRED            6 OUTER ITERATIONS 
       AND A TOTAL OF         11 INNER ITERATIONS.
    ------------------------------------------------

 NO OUTPUT CONTROL FOR STRESS PERIOD   10   TIME STEP   10
 
 SOLVING FOR HEAD 
                                                   Max.-Head-Change                         Max.-Flux-Residual
  Residual-Control   Outer-Iter.   Inner-Iter.     Column Row Layer    Maximum-Head-Change  Column Row Layer    Maximum-Flux-Residual          L2-NORM 
          0                 1           2             4    7     1       0.1232603229E-01       4    7    1         0.6458060280E+00      0.1801933407E+01
          0                 2           2             4    7     1      -0.1198987464E-02       4    7    1        -0.6458064051E-01      0.1793050325E+00
          0                 3           2             4    7     1      -0.3463826234E-01       5    8    1        -0.1859643038E+01      0.4575267935E+01
          0                 4           2             4    7     1       0.3613696113E-01       5    8    1         0.1993963775E+01      0.4884222668E+01
          0                 5           2             4    7     1      -0.1438272646E-02       5    8    1        -0.8159955796E-01      0.1998620127E+00
          0                 6           1             4    7     1       0.1774767871E-04       5    8    1         0.1035178067E-02      0.2535580761E-02

    ------------------------------------------------
       NWT REQUIRED            6 OUTER ITERATIONS 
       AND A TOTAL OF         11 INNER ITERATIONS.
    ------------------------------------------------

 NO OUTPUT CONTROL FOR STRESS PERIOD   10   TIME STEP   11
 
 SOLVING FOR HEAD 
                                                   Max.-Head-Change                         Max.-Flux-Residual
  Residual-Control   Outer-Iter.   Inner-Iter.     Column Row Layer    Maximum-Head-Change  Column Row Layer    Maximum-Flux-Residual          L2-NORM 
          0                 1           2             4    7     1       0.1221767380E-01       4    7    1         0.6404569667E+00      0.1756038377E+01
          0                 2           2             4    7     1      -0.1188447306E-02       4    7    1        -0.6404574595E-01      0.1747486995E+00
          0                 3           2             4    7     1      -0.3464140438E-01       5    8    1        -0.1859910866E+01      0.4575806813E+01
          0                 4           2             4    7     1       0.3613951395E-01       5    8    1         0.1994111689E+01      0.4884578268E+01
          0                 5           2             4    7     1      -0.1438374250E-02       5    8    1        -0.8160560921E-01      0.1998765689E+00
          0                 6           1             4    7     1       0.1774893217E-04       5    8    1         0.1035254805E-02      0.2535766244E-02

    ------------------------------------------------
       NWT REQUIRED            6 OUTER ITERATIONS 
       AND A TOTAL OF         11 INNER ITERATIONS.
    ------------------------------------------------

 NO OUTPUT CONTROL FOR STRESS PERIOD   10   TIME STEP   12
 
 SOLVING FOR HEAD 
                                                   Max.-Head-Change                         Max.-Flux-Residual
  Residual-Control   Outer-Iter.   Inner-Iter.     Column Row Layer    Maximum-Head-Change  Column Row Layer    Maximum-Flux-Residual          L2-NORM 
          0                 1           2             4    7     1       0.1210442603E-01       4    7    1         0.6348238900E+00      0.1712542831E+01
          0                 2           2             4    7     1      -0.1177431535E-02       4    7    1        -0.6348244853E-01      0.1704292545E+00
          0                 3           2             4    7     1      -0.3464449043E-01       5    8    1        -0.1860166470E+01      0.4576327041E+01
          0                 4           2             4    7     1       0.3614197611E-01       5    8    1         0.1994253983E+01      0.4884920780E+01
          0                 5           2             4    7     1      -0.1438472246E-02       5    8    1        -0.8161143061E-01      0.1998905680E+00
          0                 6           1             4    7     1       0.1775014150E-04       5    8    1         0.1035328626E-02      0.2535950236E-02

    ------------------------------------------------
       NWT REQUIRED            6 OUTER ITERATIONS 
       AND A TOTAL OF         11 INNER ITERATIONS.
    ------------------------------------------------

 NO OUTPUT CONTROL FOR STRESS PERIOD   10   TIME STEP   13
 
 SOLVING FOR HEAD 
                                                   Max.-Head-Change                         Max.-Flux-Residual
  Residual-Control   Outer-Iter.   Inner-Iter.     Column Row Layer    Maximum-Head-Change  Column Row Layer    Maximum-Flux-Residual          L2-NORM 
          0                 1           2             4    7     1       0.1198683006E-01       4    7    1         0.6289373080E+00      0.1671259880E+01
          0                 2           2             4    7     1      -0.1165992784E-02       4    7    1        -0.6289379933E-01      0.1663282599E+00
          0                 3           2             4    7     1      -0.3464751907E-01       5    8    1        -0.1860410369E+01      0.4576829309E+01
          0                 4           2             4    7     1       0.3614434971E-01       5    8    1         0.1994390812E+01      0.4885250555E+01
          0                 5           2             4    7     1      -0.1438566717E-02       5    8    1        -0.8161702846E-01      0.1999040791E+00
          0                 6           1             4    7     1       0.1775130736E-04       5    8    1         0.1035399643E-02      0.2536115700E-02

    ------------------------------------------------
       NWT REQUIRED            6 OUTER ITERATIONS 
       AND A TOTAL OF         11 INNER ITERATIONS.
    ------------------------------------------------

 NO OUTPUT CONTROL FOR STRESS PERIOD   10   TIME STEP   14
 
 SOLVING FOR HEAD 
                                                   Max.-Head-Change                         Max.-Flux-Residual
  Residual-Control   Outer-Iter.   Inner-Iter.     Column Row Layer    Maximum-Head-Change  Column Row Layer    Maximum-Flux-Residual          L2-NORM 
          0                 1           2             4    7     1       0.1186540016E-01       4    7    1         0.6228252746E+00      0.1632042243E+01
          0                 2           2             4    7     1      -0.1154181081E-02       4    7    1        -0.6228260392E-01      0.1624306561E+00
          0                 3           2             4    7     1      -0.3465049794E-01       5    8    1        -0.1860643638E+01      0.4577315140E+01
          0                 4           2             4    7     1       0.3614664610E-01       5    8    1         0.1994522847E+01      0.4885569153E+01
          0                 5           2             4    7     1      -0.1438658115E-02       5    8    1        -0.8162243025E-01      0.1999171189E+00
          0                 6           1             4    7     1       0.1775243513E-04       5    8    1         0.1035468135E-02      0.2536284294E-02

    ------------------------------------------------
       NWT REQUIRED            6 OUTER ITERATIONS 
       AND A TOTAL OF         11 INNER ITERATIONS.
    ------------------------------------------------

 NO OUTPUT CONTROL FOR STRESS PERIOD   10   TIME STEP   15
 
 SOLVING FOR HEAD 
                                                   Max.-Head-Change                         Max.-Flux-Residual
  Residual-Control   Outer-Iter.   Inner-Iter.     Column Row Layer    Maximum-Head-Change  Column Row Layer    Maximum-Flux-Residual          L2-NORM 
          0                 1           2             4    7     1       0.1174088264E-01       4    7    1         0.6165292466E+00      0.1594740102E+01
          0                 2           2             4    7     1      -0.1142069022E-02       4    7    1        -0.6165300806E-01      0.1587234736E+00
          0                 3           2             4    7     1      -0.3465341979E-01       5    8    1        -0.1860866708E+01      0.4577784727E+01
          0                 4           2             4    7     1       0.3614886269E-01       5    8    1         0.1994649998E+01      0.4885876275E+01
          0                 5           2             4    7     1      -0.1438746337E-02       5    8    1        -0.8162763229E-01      0.1999296834E+00
          0                 6           1             4    7     1       0.1775352370E-04       5    8    1         0.1035534097E-02      0.2536439678E-02

    ------------------------------------------------
       NWT REQUIRED            6 OUTER ITERATIONS 
       AND A TOTAL OF         11 INNER ITERATIONS.
    ------------------------------------------------

 NO OUTPUT CONTROL FOR STRESS PERIOD   10   TIME STEP   16
 
 SOLVING FOR HEAD 
                                                   Max.-Head-Change                         Max.-Flux-Residual
  Residual-Control   Outer-Iter.   Inner-Iter.     Column Row Layer    Maximum-Head-Change  Column Row Layer    Maximum-Flux-Residual          L2-NORM 
          0                 1           2             4    7     1       0.1161315923E-01       4    7    1         0.6100435426E+00      0.1559213895E+01
          0                 2           2             4    7     1      -0.1129645103E-02       4    7    1        -0.6100444364E-01      0.1551964048E+00
          0                 3           2             4    7     1      -0.3465629207E-01       5    8    1        -0.1861080230E+01      0.4578238934E+01
          0                 4           2             4    7     1       0.3615100645E-01       5    8    1         0.1994772669E+01      0.4886172886E+01
          0                 5           2             4    7     1      -0.1438831660E-02       5    8    1        -0.8163265109E-01      0.1999418175E+00
          0                 6           1             4    7     1       0.1775457665E-04       5    8    1         0.1035597752E-02      0.2536593556E-02

    ------------------------------------------------
       NWT REQUIRED            6 OUTER ITERATIONS 
       AND A TOTAL OF         11 INNER ITERATIONS.
    ------------------------------------------------

 NO OUTPUT CONTROL FOR STRESS PERIOD   10   TIME STEP   17
 
 SOLVING FOR HEAD 
                                                   Max.-Head-Change                         Max.-Flux-Residual
  Residual-Control   Outer-Iter.   Inner-Iter.     Column Row Layer    Maximum-Head-Change  Column Row Layer    Maximum-Flux-Residual          L2-NORM 
          0                 1           2             4    7     1       0.1148293025E-01       4    7    1         0.6034064077E+00      0.1525352952E+01
          0                 2           2             4    7     1      -0.1116977449E-02       4    7    1        -0.6034073530E-01      0.1518208336E+00
          0                 3           2             4    7     1      -0.3465911230E-01       5    8    1        -0.1861284702E+01      0.4578678460E+01
          0                 4           2             4    7     1       0.3615307942E-01       5    8    1         0.1994891014E+01      0.4886459399E+01
          0                 5           2             4    7     1      -0.1438914166E-02       5    8    1        -0.8163749295E-01      0.1999535380E+00
          0                 6           1             4    7     1       0.1775559443E-04       5    8    1         0.1035659161E-02      0.2536746219E-02

    ------------------------------------------------
       NWT REQUIRED            6 OUTER ITERATIONS 
       AND A TOTAL OF         11 INNER ITERATIONS.
    ------------------------------------------------

 NO OUTPUT CONTROL FOR STRESS PERIOD   10   TIME STEP   18
 
 SOLVING FOR HEAD 
                                                   Max.-Head-Change                         Max.-Flux-Residual
  Residual-Control   Outer-Iter.   Inner-Iter.     Column Row Layer    Maximum-Head-Change  Column Row Layer    Maximum-Flux-Residual          L2-NORM 
          0                 1           2             4    7     1       0.1135085209E-01       4    7    1         0.5966541537E+00      0.1493049115E+01
          0                 2           2             4    7     1      -0.1104129908E-02       4    7    1        -0.5966551430E-01      0.1486063527E+00
          0                 3           2             4    7     1      -0.3466188049E-01       5    8    1        -0.1861480711E+01      0.4579103994E+01
          0                 4           2             4    7     1       0.3615508598E-01       5    8    1         0.1995005311E+01      0.4886736409E+01
          0                 5           2             4    7     1      -0.1438994029E-02       5    8    1        -0.8164216925E-01      0.1999648807E+00
          0                 6           1             4    7     1       0.1775657994E-04       5    8    1         0.1035718465E-02      0.2536890890E-02

    ------------------------------------------------
       NWT REQUIRED            6 OUTER ITERATIONS 
       AND A TOTAL OF         11 INNER ITERATIONS.
    ------------------------------------------------

 NO OUTPUT CONTROL FOR STRESS PERIOD   10   TIME STEP   19
 
 SOLVING FOR HEAD 
                                                   Max.-Head-Change                         Max.-Flux-Residual
  Residual-Control   Outer-Iter.   Inner-Iter.     Column Row Layer    Maximum-Head-Change  Column Row Layer    Maximum-Flux-Residual          L2-NORM 
          0                 1           2             4    7     1       0.1121671542E-01       4    7    1         0.5897764334E+00      0.1462189807E+01
          0                 2           2             4    7     1      -0.1091082120E-02       4    7    1        -0.5897774592E-01      0.1455349172E+00
          0                 3           2             4    7     1      -0.3466460471E-01       5    8    1        -0.1861668830E+01      0.4579516622E+01
          0                 4           2             4    7     1       0.3615703313E-01       5    8    1         0.1995115959E+01      0.4887004854E+01
          0                 5           2             4    7     1      -0.1439071527E-02       5    8    1        -0.8164669631E-01      0.1999758553E+00
          0                 6           1             4    7     1       0.1775753633E-04       5    8    1         0.1035775877E-02      0.2537028297E-02

    ------------------------------------------------
       NWT REQUIRED            6 OUTER ITERATIONS 
       AND A TOTAL OF         11 INNER ITERATIONS.
    ------------------------------------------------

 NO OUTPUT CONTROL FOR STRESS PERIOD   10   TIME STEP   20
 
 SOLVING FOR HEAD 
                                                   Max.-Head-Change                         Max.-Flux-Residual
  Residual-Control   Outer-Iter.   Inner-Iter.     Column Row Layer    Maximum-Head-Change  Column Row Layer    Maximum-Flux-Residual          L2-NORM 
          0                 1           2             4    7     1       0.1108141094E-01       4    7    1         0.5828215684E+00      0.1432695460E+01
          0                 2           2             4    7     1      -0.1077920728E-02       4    7    1        -0.5828226251E-01      0.1425970108E+00
          0                 3           2             4    7     1      -0.3466727452E-01       5    8    1        -0.1861849350E+01      0.4579916198E+01
          0                 4           2             4    7     1       0.3615891591E-01       5    8    1         0.1995222739E+01      0.4887264153E+01
          0                 5           2             4    7     1      -0.1439146463E-02       5    8    1        -0.8165106513E-01      0.1999864689E+00
          0                 6           1             4    7     1       0.1775846136E-04       5    8    1         0.1035831311E-02      0.2537161334E-02

    ------------------------------------------------
       NWT REQUIRED            6 OUTER ITERATIONS 
       AND A TOTAL OF         11 INNER ITERATIONS.
    ------------------------------------------------

 NO OUTPUT CONTROL FOR STRESS PERIOD   10   TIME STEP   21
 
 SOLVING FOR HEAD 
                                                   Max.-Head-Change                         Max.-Flux-Residual
  Residual-Control   Outer-Iter.   Inner-Iter.     Column Row Layer    Maximum-Head-Change  Column Row Layer    Maximum-Flux-Residual          L2-NORM 
          0                 1           2             4    7     1       0.1094494722E-01       4    7    1         0.5757913586E+00      0.1404475648E+01
          0                 2           2             4    7     1      -0.1064646564E-02       4    7    1        -0.5757924402E-01      0.1397865701E+00
          0                 3           2             4    7     1      -0.3466989875E-01       5    8    1        -0.1862022797E+01      0.4580303611E+01
          0                 4           2             4    7     1       0.3616074357E-01       5    8    1         0.1995326164E+01      0.4887515554E+01
          0                 5           2             4    7     1      -0.1439219205E-02       5    8    1        -0.8165529676E-01      0.1999967458E+00
          0                 6           1             4    7     1       0.1775935861E-04       5    8    1         0.1035884969E-02      0.2537290379E-02

    ------------------------------------------------
       NWT REQUIRED            6 OUTER ITERATIONS 
       AND A TOTAL OF         11 INNER ITERATIONS.
    ------------------------------------------------

 NO OUTPUT CONTROL FOR STRESS PERIOD   10   TIME STEP   22
 
 SOLVING FOR HEAD 
                                                   Max.-Head-Change                         Max.-Flux-Residual
  Residual-Control   Outer-Iter.   Inner-Iter.     Column Row Layer    Maximum-Head-Change  Column Row Layer    Maximum-Flux-Residual          L2-NORM 
          0                 1           2             4    7     1       0.1080734574E-01       4    7    1         0.5686862471E+00      0.1377454408E+01
          0                 2           2             4    7     1      -0.1051261720E-02       4    7    1        -0.5686873484E-01      0.1370938301E+00
          0                 3           2             4    7     1      -0.3467247503E-01       5    8    1        -0.1862189432E+01      0.4580679100E+01
          0                 4           2             4    7     1       0.3616251378E-01       5    8    1         0.1995426135E+01      0.4887758771E+01
          0                 5           2             4    7     1      -0.1439289661E-02       5    8    1        -0.8165938707E-01      0.2000067014E+00
          0                 6           1             4    7     1       0.1776022785E-04       5    8    1         0.1035936841E-02      0.2537416921E-02

    ------------------------------------------------
       NWT REQUIRED            6 OUTER ITERATIONS 
       AND A TOTAL OF         11 INNER ITERATIONS.
    ------------------------------------------------

 NO OUTPUT CONTROL FOR STRESS PERIOD   10   TIME STEP   23
 
 SOLVING FOR HEAD 
                                                   Max.-Head-Change                         Max.-Flux-Residual
  Residual-Control   Outer-Iter.   Inner-Iter.     Column Row Layer    Maximum-Head-Change  Column Row Layer    Maximum-Flux-Residual          L2-NORM 
          0                 1           2             4    7     1       0.1066941540E-01       4    7    1         0.5615517331E+00      0.1351558055E+01
          0                 2           2             4    7     1      -0.1037844880E-02       4    7    1        -0.5615528496E-01      0.1345135428E+00
          0                 3           2             4    7     1      -0.3467500680E-01       5    8    1        -0.1862349859E+01      0.4581043902E+01
          0                 4           2             4    7     1       0.3616423548E-01       5    8    1         0.1995523169E+01      0.4887995071E+01
          0                 5           2             4    7     1      -0.1439358186E-02       5    8    1        -0.8166335727E-01      0.2000163760E+00
          0                 6           1             4    7     1       0.1776107357E-04       5    8    1         0.1035987199E-02      0.2537544398E-02

    ------------------------------------------------
       NWT REQUIRED            6 OUTER ITERATIONS 
       AND A TOTAL OF         11 INNER ITERATIONS.
    ------------------------------------------------

 NO OUTPUT CONTROL FOR STRESS PERIOD   10   TIME STEP   24
 
 SOLVING FOR HEAD 
                                                   Max.-Head-Change                         Max.-Flux-Residual
  Residual-Control   Outer-Iter.   Inner-Iter.     Column Row Layer    Maximum-Head-Change  Column Row Layer    Maximum-Flux-Residual          L2-NORM 
          0                 1           2             4    7     1       0.1053083094E-01       4    7    1         0.5543705771E+00      0.1326714257E+01
          0                 2           2             4    7     1      -0.1024364405E-02       4    7    1        -0.5543717044E-01      0.1320368268E+00
          0                 3           2             4    7     1      -0.3467749180E-01       5    8    1        -0.1862504180E+01      0.4581397577E+01
          0                 4           2             4    7     1       0.3616590416E-01       5    8    1         0.1995617035E+01      0.4888223825E+01
          0                 5           2             4    7     1      -0.1439424601E-02       5    8    1        -0.8166719790E-01      0.2000257308E+00
          0                 6           1             4    7     1       0.1776189330E-04       5    8    1         0.1036035903E-02      0.2537661538E-02

    ------------------------------------------------
       NWT REQUIRED            6 OUTER ITERATIONS 
       AND A TOTAL OF         11 INNER ITERATIONS.
    ------------------------------------------------

 NO OUTPUT CONTROL FOR STRESS PERIOD   10   TIME STEP   25
 
 SOLVING FOR HEAD 
                                                   Max.-Head-Change                         Max.-Flux-Residual
  Residual-Control   Outer-Iter.   Inner-Iter.     Column Row Layer    Maximum-Head-Change  Column Row Layer    Maximum-Flux-Residual          L2-NORM 
          0                 1           2             4    7     1       0.1039210098E-01       4    7    1         0.5471702994E+00      0.1302870353E+01
          0                 2           2             4    7     1      -0.1010869773E-02       4    7    1        -0.5471714338E-01      0.1296580226E+00
          0                 3           2             4    7     1      -0.3467993106E-01       5    8    1        -0.1862652734E+01      0.4581741149E+01
          0                 4           2             4    7     1       0.3616752426E-01       5    8    1         0.1995707996E+01      0.4888445698E+01
          0                 5           2             4    7     1      -0.1439489082E-02       5    8    1        -0.8167091967E-01      0.2000348087E+00
          0                 6           1             4    7     1       0.1776268884E-04       5    8    1         0.1036083115E-02      0.2537786661E-02

    ------------------------------------------------
       NWT REQUIRED            6 OUTER ITERATIONS 
       AND A TOTAL OF         11 INNER ITERATIONS.
    ------------------------------------------------

 NO OUTPUT CONTROL FOR STRESS PERIOD   10   TIME STEP   26
 
 SOLVING FOR HEAD 
                                                   Max.-Head-Change                         Max.-Flux-Residual
  Residual-Control   Outer-Iter.   Inner-Iter.     Column Row Layer    Maximum-Head-Change  Column Row Layer    Maximum-Flux-Residual          L2-NORM 
          0                 1           2             4    7     1       0.1025369585E-01       4    7    1         0.5399772737E+00      0.1279971918E+01
          0                 2           2             4    7     1      -0.9974067331E-03       4    7    1        -0.5399784121E-01      0.1273741991E+00
          0                 3           2             4    7     1      -0.3468232806E-01       5    8    1        -0.1862796185E+01      0.4582075041E+01
          0                 4           2             4    7     1       0.3616910254E-01       5    8    1         0.1995796455E+01      0.4888656843E+01
          0                 5           2             4    7     1      -0.1439551899E-02       5    8    1        -0.8167453909E-01      0.2000369915E+00
          0                 6           1             4    7     1       0.1776346377E-04       5    8    1         0.1036129016E-02      0.2537688047E-02

    ------------------------------------------------
       NWT REQUIRED            6 OUTER ITERATIONS 
       AND A TOTAL OF         11 INNER ITERATIONS.
    ------------------------------------------------

 NO OUTPUT CONTROL FOR STRESS PERIOD   10   TIME STEP   27
 
 SOLVING FOR HEAD 
                                                   Max.-Head-Change                         Max.-Flux-Residual
  Residual-Control   Outer-Iter.   Inner-Iter.     Column Row Layer    Maximum-Head-Change  Column Row Layer    Maximum-Flux-Residual          L2-NORM 
          0                 1           2             4    7     1       0.1011524330E-01       4    7    1         0.5327714969E+00      0.1257959434E+01
          0                 2           2             4    7     1      -0.9839390754E-03       4    7    1        -0.5327726364E-01      0.1251778677E+00
          0                 3           2             4    7     1      -0.3468468088E-01       5    8    1        -0.1862934253E+01      0.4582399439E+01
          0                 4           2             4    7     1       0.3617063450E-01       5    8    1         0.1995882154E+01      0.4888866223E+01
          0                 5           2             4    7     1      -0.1439612873E-02       5    8    1        -0.8167804566E-01      0.2000455630E+00
          0                 6           1             4    7     1       0.1776421629E-04       5    8    1         0.1036173492E-02      0.2537805628E-02

    ------------------------------------------------
       NWT REQUIRED            6 OUTER ITERATIONS 
       AND A TOTAL OF         11 INNER ITERATIONS.
    ------------------------------------------------

 NO OUTPUT CONTROL FOR STRESS PERIOD   10   TIME STEP   28
 
 SOLVING FOR HEAD 
                                                   Max.-Head-Change                         Max.-Flux-Residual
  Residual-Control   Outer-Iter.   Inner-Iter.     Column Row Layer    Maximum-Head-Change  Column Row Layer    Maximum-Flux-Residual          L2-NORM 
          0                 1           2             4    7     1       0.9977189705E-02       4    7    1         0.5255780563E+00      0.1236782931E+01
          0                 2           2             4    7     1      -0.9705102209E-03       4    7    1        -0.5255791937E-01      0.1230642318E+00
          0                 3           2             4    7     1      -0.3468699095E-01       5    8    1        -0.1863067577E+01      0.4582714641E+01
          0                 4           2             4    7     1       0.3617212461E-01       5    8    1         0.1995965377E+01      0.4889069683E+01
          0                 5           2             4    7     1      -0.1439672180E-02       5    8    1        -0.8168145092E-01      0.2000538725E+00
          0                 6           1             4    7     1       0.1776494843E-04       5    8    1         0.1036216679E-02      0.2537898881E-02

    ------------------------------------------------
       NWT REQUIRED            6 OUTER ITERATIONS 
       AND A TOTAL OF         11 INNER ITERATIONS.
    ------------------------------------------------

 NO OUTPUT CONTROL FOR STRESS PERIOD   10   TIME STEP   29
 
 SOLVING FOR HEAD 
                                                   Max.-Head-Change                         Max.-Flux-Residual
  Residual-Control   Outer-Iter.   Inner-Iter.     Column Row Layer    Maximum-Head-Change  Column Row Layer    Maximum-Flux-Residual          L2-NORM 
          0                 1           2             4    7     1       0.9839971034E-02       4    7    1         0.5184200983E+00      0.1216413179E+01
          0                 2           2             4    7     1      -0.9571625793E-03       4    7    1        -0.5184212317E-01      0.1210303976E+00
          0                 3           2             4    7     1      -0.3468925755E-01       5    8    1        -0.1863196434E+01      0.4583021085E+01
          0                 4           2             4    7     1       0.3617357501E-01       5    8    1         0.1996046262E+01      0.4889267573E+01
          0                 5           2             4    7     1      -0.1439729907E-02       5    8    1        -0.8168476052E-01      0.2000620000E+00
          0                 6           1             4    7     1       0.1776566062E-04       5    8    1         0.1036258672E-02      0.2537999854E-02

    ------------------------------------------------
       NWT REQUIRED            6 OUTER ITERATIONS 
       AND A TOTAL OF         11 INNER ITERATIONS.
    ------------------------------------------------

 NO OUTPUT CONTROL FOR STRESS PERIOD   10   TIME STEP   30



 STREAM LISTING     PERIOD     10   STEP       30

 LAYER ROW COL. STREAM  RCH.  FLOW INTO     FLOW TO   FLOW OUT OF   OVRLND.     DIRECT     STREAM       STREAM     STREAM     STREAM   STREAMBED  STREAMBED
                SEG.NO.  NO.  STRM. RCH.    AQUIFER    STRM. RCH.    RUNOFF     PRECIP       ET          HEAD       DEPTH      WIDTH   CONDCTNC.   GRADIENT

   1    1    1     1     1    3.5250E+01  2.8720E-01   3.4963E+01  0.000E+00  0.000E+00  0.000E+00  1.09434E+03  1.294E+00  1.486E+01  6.688E-02  1.431E+00
   1    2    2     1     2    3.4963E+01  4.4467E-01   3.4518E+01  0.000E+00  0.000E+00  0.000E+00  1.08935E+03  1.291E+00  1.480E+01  1.036E-01  1.430E+00
   1    3    3     1     3    3.4518E+01  3.7912E-01   3.4139E+01  0.000E+00  0.000E+00  0.000E+00  1.08371E+03  1.288E+00  1.474E+01  8.841E-02  1.429E+00
   1    3    4     1     4    3.4139E+01  3.4902E-01   3.3790E+01  0.000E+00  0.000E+00  0.000E+00  1.07869E+03  1.285E+00  1.468E+01  8.145E-02  1.428E+00
   1    4    5     2     1    3.1790E+01  3.4244E-01   3.1447E+01  0.000E+00  0.000E+00  0.000E+00  1.07332E+03  1.390E+00  1.200E+01  7.800E-02  1.463E+00
   1    5    6     2     2    3.1447E+01  2.6294E-01   3.1184E+01  0.000E+00  0.000E+00  0.000E+00  1.06789E+03  1.382E+00  1.200E+01  6.000E-02  1.461E+00
   1    6    6     2     3    3.1184E+01  2.6252E-01   3.0922E+01  0.000E+00  0.000E+00  0.000E+00  1.06317E+03  1.375E+00  1.200E+01  6.000E-02  1.458E+00
   1    7    6     2     4    3.0922E+01  2.6210E-01   3.0660E+01  0.000E+00  0.000E+00  0.000E+00  1.05844E+03  1.368E+00  1.200E+01  6.000E-02  1.456E+00
   1    8    6     2     5    3.0660E+01  2.6168E-01   3.0398E+01  0.000E+00  0.000E+00  0.000E+00  1.05372E+03  1.361E+00  1.200E+01  6.000E-02  1.454E+00
   1    3    5     3     1    2.0000E+00  2.8252E-01   1.7175E+00  0.000E+00  0.000E+00  0.000E+00  1.07555E+03  1.909E+00  9.636E+00  7.227E-02  1.955E+00
   1    3    6     3     2    1.7175E+00  2.4905E-01   1.4684E+00  0.000E+00  0.000E+00  0.000E+00  1.07264E+03  1.727E+00  8.909E+00  6.682E-02  1.864E+00
   1    3    7     3     3    1.4684E+00  1.9718E-01   1.2712E+00  0.000E+00  0.000E+00  0.000E+00  1.06987E+03  1.555E+00  8.218E+00  5.547E-02  1.777E+00
   1    4    8     3     4    1.2712E+00  2.2567E-01   1.0456E+00  0.000E+00  0.000E+00  0.000E+00  1.06682E+03  1.364E+00  7.455E+00  6.709E-02  1.682E+00
   1    5    8     3     5    1.0456E+00  1.5790E-01   8.8768E-01  0.000E+00  0.000E+00  0.000E+00  1.06362E+03  1.164E+00  6.655E+00  4.991E-02  1.582E+00
   1    6    8     3     6    8.8768E-01  5.5980E-02   8.3170E-01  0.000E+00  0.000E+00  0.000E+00  1.06158E+03  1.036E+00  6.145E+00  1.844E-02  1.518E+00
   1    5   10     4     1    1.0000E+01  9.0919E-02   9.9091E+00  0.000E+00  0.000E+00  0.000E+00  1.07836E+03  6.368E-01  1.000E+01  2.500E-02  1.212E+00
   1    5    9     4     2    9.9091E+00  1.8158E-01   9.7275E+00  0.000E+00  0.000E+00  0.000E+00  1.07154E+03  6.315E-01  1.000E+01  5.000E-02  1.211E+00
   1    6    8     4     3    9.7275E+00  1.2689E-01   9.6006E+00  0.000E+00  0.000E+00  0.000E+00  1.06381E+03  6.256E-01  1.000E+01  3.500E-02  1.209E+00
   1    6    8     5     1    1.0432E+01  2.2686E-01   1.0205E+01  0.000E+00  0.000E+00  0.000E+00  1.05868E+03  6.790E-01  1.542E+01  6.166E-02  1.226E+00
   1    7    7     5     2    1.0205E+01  2.7894E-01   9.9265E+00  0.000E+00  0.000E+00  0.000E+00  1.05417E+03  6.732E-01  1.519E+01  7.594E-02  1.224E+00
   1    8    7     5     3    9.9265E+00  1.9221E-01   9.7343E+00  0.000E+00  0.000E+00  0.000E+00  1.04992E+03  6.676E-01  1.497E+01  5.241E-02  1.223E+00
   1    8    6     5     4    9.7343E+00  1.3577E-01   9.5985E+00  0.000E+00  0.000E+00  0.000E+00  1.04691E+03  6.637E-01  1.482E+01  3.706E-02  1.221E+00
   1    9    6     6     1    2.8803E+01  2.5954E-01   2.8544E+01  0.000E+00  0.000E+00  0.000E+00  1.04405E+03  1.326E+00  1.200E+01  6.000E-02  1.442E+00
   1   10    7     6     2    2.8544E+01  2.5911E-01   2.8284E+01  0.000E+00  0.000E+00  0.000E+00  1.03950E+03  1.319E+00  1.200E+01  6.000E-02  1.440E+00
   1   11    7     6     3    2.8284E+01  2.5868E-01   2.8026E+01  0.000E+00  0.000E+00  0.000E+00  1.03495E+03  1.311E+00  1.200E+01  6.000E-02  1.437E+00
   1   12    7     6     4    2.8026E+01  2.5824E-01   2.7768E+01  0.000E+00  0.000E+00  0.000E+00  1.03040E+03  1.304E+00  1.200E+01  6.000E-02  1.435E+00
   1   13    7     6     5    2.7768E+01  2.1263E-03   2.7765E+01  0.000E+00  0.000E+00  0.000E+00  1.02721E+03  1.300E+00  1.200E+01  2.400E-02  2.953E-02
   1   14    9     7     1    1.5000E+02  1.3358E+00   1.4866E+02  0.000E+00  0.000E+00  0.000E+00  1.03987E+03  2.288E+00  5.529E+01  5.593E-01  7.961E-01
   1   13    8     7     2    1.4866E+02  1.8240E+00   1.4684E+02  0.000E+00  0.000E+00  0.000E+00  1.03478E+03  2.279E+00  5.526E+01  6.148E-01  9.890E-01
   1   13    7     7     3    1.4684E+02  1.4347E+00   1.4541E+02  0.000E+00  0.000E+00  0.000E+00  1.02969E+03  2.271E+00  5.522E+01  5.585E-01  8.564E-01
   1   13    6     8     1    1.7317E+02  8.8811E-01   1.7228E+02  0.000E+00  0.000E+00  0.000E+00  1.02484E+03  2.970E+00  4.306E+01  4.388E-01  6.746E-01
   1   13    5     8     2    1.7228E+02  1.3253E-01   1.7215E+02  0.000E+00  0.000E+00  0.000E+00  1.01859E+03  2.967E+00  4.302E+01  4.383E-01  1.008E-01
   1   13    4     8     3    1.7215E+02 -2.5982E+00   1.7475E+02  0.000E+00  0.000E+00  0.000E+00  1.01235E+03  2.975E+00  4.313E+01  4.395E+00 -1.971E-01
   1   13    3     8     4    1.7475E+02 -3.7031E+00   1.7845E+02  0.000E+00  0.000E+00  0.000E+00  1.00612E+03  2.995E+00  4.342E+01  4.425E+00 -2.790E-01
   1   13    2     8     5    1.7845E+02 -2.5467E+00   1.8100E+02  0.000E+00  0.000E+00  0.000E+00  9.99889E+02  3.014E+00  4.371E+01  4.454E+00 -1.906E-01
   1   13    1     8     6    1.8100E+02 -1.9308E+00   1.8293E+02  0.000E+00  0.000E+00  0.000E+00  9.94903E+02  3.028E+00  4.391E+01  2.685E+00 -2.397E-01
   1    8    6     9     1    1.1193E+01  0.0000E+00   1.1193E+01  0.000E+00  0.000E+00  0.000E+00  1.08117E+03  2.425E+00  4.000E+00  0.000E+00  1.808E+00
   1    8    5     9     2    1.1193E+01  0.0000E+00   1.1193E+01  0.000E+00  0.000E+00  0.000E+00  1.08067E+03  2.425E+00  4.000E+00  0.000E+00  1.808E+00





UNSATURATED ZONE PACKAGE VOLUMETRIC BUDGET FOR  TIME STEP    30 STRESS PERIOD   10
  ------------------------------------------------------------------------------



     CUMULATIVE VOLUMES      L**3       RATES FOR THIS TIME STEP      L**3/T
     ------------------                 ------------------------

           IN:                                      IN:
           ---                                      ---
        INFILTRATION =   428209130.4963          INFILTRATION =          12.0412

          OUT:                                     OUT:
          ----                                     ----
              UZF ET =   423851768.1763                UZF ET =          12.0675
        UZF RECHARGE =       73224.0000          UZF RECHARGE =       0.0000E+00

            IN - OUT =     4284138.3200              IN - OUT =      -2.6284E-02

          STORAGE:                                 STORAGE:
          --------                                 --------
      STORAGE CHANGE =     4284341.2104        STORAGE CHANGE =      -2.6284E-02

 PERCENT DISCREPANCY IS DIFFERENCE BETWEEN IN-OUT MINUS CHANGE IN STORAGE
 DIVIDED BY THE AVERAGE OF IN AND OUT TIMES 100

 PERCENT DISCREPANCY =          -0.00     PERCENT DISCREPANCY =           0.00






1
  VOLUMETRIC BUDGET FOR AGRICULTURAL FIELDS AT  END OF TIME STEP   30, STRESS PERIOD  10
  ------------------------------------------------------------------------------

     CUMULATIVE VOLUMES      L**3       RATES FOR THIS TIME STEP      L**3/T
     ------------------                 ------------------------

           IN:                                      IN:
           ---                                      ---
               AG WELLS  =    49128108.0000                 AG WELLS  =           0.0000
      DIVERSION SEGMENTS =   358973504.0000        DIVERSION SEGMENTS =          11.1935
       IRRIGATION PONDS  =           0.0000         IRRIGATION PONDS  =           0.0000
           GW IRRIGATION =           0.0000             GW IRRIGATION =           0.0000
           SW IRRIGATION =           0.0000             SW IRRIGATION =           0.0000
        SYSTEM LOSSES GW =           0.0000          SYSTEM LOSSES GW =           0.0000
        SYSTEM LOSSES SW =           0.0000          SYSTEM LOSSES SW =           0.0000

                TOTAL IN =   408101600.0000                  TOTAL IN =          11.1935

          OUT:                                     OUT:
          ----                                     ----
               AG WELLS  =           0.0000                 AG WELLS  =           0.0000
      DIVERSION SEGMENTS =           0.0000        DIVERSION SEGMENTS =           0.0000
       IRRIGATION PONDS  =           0.0000         IRRIGATION PONDS  =           0.0000
           GW IRRIGATION =    49128108.0000             GW IRRIGATION =           0.0000
           SW IRRIGATION =   358980608.0000             SW IRRIGATION =          11.1937
        SYSTEM LOSSES GW =           0.0000          SYSTEM LOSSES GW =           0.0000
        SYSTEM LOSSES SW =           0.0000          SYSTEM LOSSES SW =           0.0000

               TOTAL OUT =   408108704.0000                 TOTAL OUT =          11.1937

                IN - OUT =       -7104.0000                  IN - OUT =      -2.2316E-04

     PERCENT DISCREPANCY =          -0.00         PERCENT DISCREPANCY =          -0.00



1
  VOLUMETRIC BUDGET FOR ENTIRE MODEL AT END OF TIME STEP   30, STRESS PERIOD  10
  ------------------------------------------------------------------------------

     CUMULATIVE VOLUMES      L**3       RATES FOR THIS TIME STEP      L**3/T
     ------------------                 ------------------------

           IN:                                      IN:
           ---                                      ---
             STORAGE     =    73654784.0000               STORAGE     =           2.1242
       CONSTANT HEAD     =           0.0000         CONSTANT HEAD     =           0.0000
     HEAD DEP BOUNDS     =     6787975.5000       HEAD DEP BOUNDS     =           0.2858
      STREAM LEAKAGE     =   288774880.0000        STREAM LEAKAGE     =          11.9060
        UZF RECHARGE     =       73223.9531          UZF RECHARGE     =           0.0000
               GW ET     =           0.0000                 GW ET     =           0.0000
     SURFACE LEAKAGE     =           0.0000       SURFACE LEAKAGE     =           0.0000
           AG WELLS      =           0.0000             AG WELLS      =           0.0000

                TOTAL IN =   369290848.0000                  TOTAL IN =          14.3160

          OUT:                                     OUT:
          ----                                     ----
             STORAGE     =    55156804.0000               STORAGE     =           3.2473
       CONSTANT HEAD     =           0.0000         CONSTANT HEAD     =           0.0000
     HEAD DEP BOUNDS     =     6913496.0000       HEAD DEP BOUNDS     =           0.2897
      STREAM LEAKAGE     =   256554960.0000        STREAM LEAKAGE     =          10.7789
        UZF RECHARGE     =           0.0000          UZF RECHARGE     =           0.0000
               GW ET     =     1538617.0000                 GW ET     =           0.0000
     SURFACE LEAKAGE     =           0.0000       SURFACE LEAKAGE     =           0.0000
           AG WELLS      =    49128108.0000             AG WELLS      =           0.0000

               TOTAL OUT =   369291968.0000                 TOTAL OUT =          14.3159

                IN - OUT =       -1120.0000                  IN - OUT =       9.4414E-05

     PERCENT DISCREPANCY =          -0.00         PERCENT DISCREPANCY =           0.00






         TIME SUMMARY AT END OF TIME STEP   30 IN STRESS PERIOD   10
                    SECONDS     MINUTES      HOURS       DAYS        YEARS
                    -----------------------------------------------------------
   TIME STEP LENGTH  87667.      1461.1      24.352      1.0147     2.77799E-03
 STRESS PERIOD TIME 2.63000E+06  43833.      730.56      30.440     8.33397E-02
         TOTAL TIME 2.37564E+07 3.95940E+05  6599.0      274.96     0.75279    
1
1
                            STRESS PERIOD NO.   11, LENGTH =   2630000.    
                            -----------------------------------------------

                              NUMBER OF TIME STEPS =    30

                               MULTIPLIER FOR DELT =     1.000

                            INITIAL TIME STEP SIZE =   87666.66    

 REUSING NON-PARAMETER GHB CELLS FROM LAST STRESS PERIOD

      2 GHB CELLS

 REUSING STREAM SEGMENT DATA FROM LAST STRESS PERIOD



            AREAL INFILTRATION RATE
 READING ON UNIT   19 WITH FORMAT: (FREE)              

            1           2           3           4           5           6           7           8           9          10
 ........................................................................................................................
   1   1.0000E-10  2.0000E-10   0.000       0.000       0.000       0.000       0.000       0.000       0.000       0.000    
   2   2.0000E-10  1.0000E-10  2.0000E-10   0.000       0.000      8.0000E-10  8.0000E-10  5.0000E-10   0.000       0.000    
   3    0.000      5.0000E-10  1.0000E-10  1.0000E-10  8.0000E-10  8.0000E-10  5.0000E-10  5.0000E-10   0.000       0.000    
   4   8.0000E-10  5.0000E-10  1.0000E-10  1.0000E-10  1.0000E-10  1.0000E-10  1.0000E-10  1.0000E-10  2.0000E-10   0.000    
   5   8.0000E-10  5.0000E-10  1.0000E-10  1.0000E-10  1.0000E-10  1.0000E-10  1.0000E-10  1.0000E-10  1.0000E-10  1.0000E-10
   6   8.0000E-10  5.0000E-10  5.0000E-10  2.0000E-10  2.0000E-10  1.0000E-10  1.0000E-10  1.0000E-10  1.0000E-10  5.0000E-10
   7   8.0000E-10  5.0000E-10  5.0000E-10  2.0000E-10  2.0000E-10  1.0000E-10  1.0000E-10  2.0000E-10  2.0000E-10   0.000    
   8    0.000      5.0000E-10  5.0000E-10  2.0000E-10  2.0000E-10  1.0000E-10  1.0000E-10  2.0000E-10  5.0000E-10   0.000    
   9    0.000      5.0000E-10  5.0000E-10  2.0000E-10  2.0000E-10  1.0000E-10  1.0000E-10  2.0000E-10  5.0000E-10   0.000    
  10    0.000      5.0000E-10  5.0000E-10  2.0000E-10  2.0000E-10  1.0000E-10  1.0000E-10  2.0000E-10  5.0000E-10  8.0000E-10
  11    0.000      1.0000E-10  1.0000E-10  1.0000E-10  1.0000E-10  1.0000E-10  1.0000E-10  2.0000E-10  5.0000E-10   0.000    
  12   1.0000E-10  1.0000E-10  1.0000E-10  1.0000E-10  1.0000E-10  1.0000E-10  1.0000E-10  1.0000E-10  2.0000E-10   0.000    
  13   1.0000E-10  1.0000E-10  2.0000E-10  2.0000E-10  2.0000E-10  2.0000E-10  2.0000E-10  1.0000E-10  1.0000E-10   0.000    
  14    0.000      2.0000E-10  5.0000E-10  5.0000E-10  5.0000E-10  5.0000E-10  5.0000E-10  2.0000E-10  1.0000E-10   0.000    
  15    0.000       0.000      8.0000E-10  8.0000E-10  8.0000E-10  8.0000E-10   0.000       0.000       0.000       0.000    

                  ET RATE =  5.000000E-09

 USING ET EXTINCTION DEPTH FROM PREVIOUS STRESS PERIOD. CURRENT PERIOD IS:      11

 USING EXTINCTION WATER CONTENT FROM PREVIOUS STRESS PERIOD. CURRENT PERIOD IS:      11

 USING AIR ENTRY PRESSURE FROM PREVIOUS STRESS PERIOD. CURRENT PERIOD IS:      11

 USING ROOT PRESSURE HEAD FROM PREVIOUS STRESS PERIOD. CURRENT PERIOD IS:      11

 USING ROOT ACTIVITY FROM PREVIOUS STRESS PERIOD. CURRENT PERIOD IS:      11

 PROCESSING AG STRESS PERIOD DATA

 READING AG STRESS PERIOD DATA

 READING IRRIGATION SEGMENT

 READING IRRIGATION WELL

 READING SUPPLEMENTAL WELL

 NO IRRPOND OR REUSING IRRPOND DATA FROM LAST STRESS PERIOD

 END PROCESSING AG STRESS PERIOD DATA OPTIONS
 
 SOLVING FOR HEAD 
                                                   Max.-Head-Change                         Max.-Flux-Residual
  Residual-Control   Outer-Iter.   Inner-Iter.     Column Row Layer    Maximum-Head-Change  Column Row Layer    Maximum-Flux-Residual          L2-NORM 
          0                 1           2             4    7     1       0.9703128122E-02       4    7    1         0.5112758351E+00      0.1133563540E+01
          0                 2           2             4    7     1      -0.9438512874E-03       4    7    1        -0.5112768563E-01      0.1130794563E+00
          0                 3           1             4    7     1       0.6427275854E-04       4    7    1         0.3578938576E-02      0.7890398143E-02

    ------------------------------------------------
       NWT REQUIRED            3 OUTER ITERATIONS 
       AND A TOTAL OF          5 INNER ITERATIONS.
    ------------------------------------------------

 NO OUTPUT CONTROL FOR STRESS PERIOD   11   TIME STEP    1
 
 SOLVING FOR HEAD 
                                                   Max.-Head-Change                         Max.-Flux-Residual
  Residual-Control   Outer-Iter.   Inner-Iter.     Column Row Layer    Maximum-Head-Change  Column Row Layer    Maximum-Flux-Residual          L2-NORM 
          0                 1           2             4    7     1       0.9566995976E-02       4    7    1         0.5041634084E+00      0.1074396401E+01
          0                 2           2             4    7     1      -0.9306093290E-03       4    7    1        -0.5041644217E-01      0.1073879356E+00
          0                 3           1             4    7     1       0.6337103030E-04       4    7    1         0.3529151522E-02      0.7512411399E-02

    ------------------------------------------------
       NWT REQUIRED            3 OUTER ITERATIONS 
       AND A TOTAL OF          5 INNER ITERATIONS.
    ------------------------------------------------

 NO OUTPUT CONTROL FOR STRESS PERIOD   11   TIME STEP    2
 
 SOLVING FOR HEAD 
                                                   Max.-Head-Change                         Max.-Flux-Residual
  Residual-Control   Outer-Iter.   Inner-Iter.     Column Row Layer    Maximum-Head-Change  Column Row Layer    Maximum-Flux-Residual          L2-NORM 
          0                 1           2             4    7     1       0.9432010527E-02       4    7    1         0.4971050902E+00      0.1054659873E+01
          0                 2           2             4    7     1      -0.9174789109E-03       4    7    1        -0.4971060940E-01      0.1054204249E+00
          0                 3           1             4    7     1       0.6247689785E-04       4    7    1         0.3479743213E-02      0.7375185016E-02

    ------------------------------------------------
       NWT REQUIRED            3 OUTER ITERATIONS 
       AND A TOTAL OF          5 INNER ITERATIONS.
    ------------------------------------------------

 NO OUTPUT CONTROL FOR STRESS PERIOD   11   TIME STEP    3
 
 SOLVING FOR HEAD 
                                                   Max.-Head-Change                         Max.-Flux-Residual
  Residual-Control   Outer-Iter.   Inner-Iter.     Column Row Layer    Maximum-Head-Change  Column Row Layer    Maximum-Flux-Residual          L2-NORM 
          0                 1           2             4    7     1       0.9297726939E-02       4    7    1         0.4900766317E+00      0.1035619835E+01
          0                 2           2             4    7     1      -0.9044167631E-03       4    7    1        -0.4900776248E-01      0.1035218986E+00
          0                 3           1             4    7     1       0.6158741414E-04       4    7    1         0.3430543921E-02      0.7242807901E-02

    ------------------------------------------------
       NWT REQUIRED            3 OUTER ITERATIONS 
       AND A TOTAL OF          5 INNER ITERATIONS.
    ------------------------------------------------

 NO OUTPUT CONTROL FOR STRESS PERIOD   11   TIME STEP    4
 
 SOLVING FOR HEAD 
                                                   Max.-Head-Change                         Max.-Flux-Residual
  Residual-Control   Outer-Iter.   Inner-Iter.     Column Row Layer    Maximum-Head-Change  Column Row Layer    Maximum-Flux-Residual          L2-NORM 
          0                 1           2             4    7     1       0.9164520242E-02       4    7    1         0.4830993635E+00      0.1017235897E+01
          0                 2           2             4    7     1      -0.8914593652E-03       4    7    1        -0.4831003445E-01      0.1016883367E+00
          0                 3           1             4    7     1       0.6070506328E-04       4    7    1         0.3381702938E-02      0.7114825976E-02

    ------------------------------------------------
       NWT REQUIRED            3 OUTER ITERATIONS 
       AND A TOTAL OF          5 INNER ITERATIONS.
    ------------------------------------------------

 NO OUTPUT CONTROL FOR STRESS PERIOD   11   TIME STEP    5
 
 SOLVING FOR HEAD 
                                                   Max.-Head-Change                         Max.-Flux-Residual
  Residual-Control   Outer-Iter.   Inner-Iter.     Column Row Layer    Maximum-Head-Change  Column Row Layer    Maximum-Flux-Residual          L2-NORM 
          0                 1           2             4    7     1       0.9032482915E-02       4    7    1         0.4761779319E+00      0.9994798395E+00
          0                 2           2             4    7     1      -0.8786157136E-03       4    7    1        -0.4761788995E-01      0.9991704225E-01
          0                 3           1             4    7     1       0.5983045851E-04       4    7    1         0.3333252826E-02      0.6991457515E-02

    ------------------------------------------------
       NWT REQUIRED            3 OUTER ITERATIONS 
       AND A TOTAL OF          5 INNER ITERATIONS.
    ------------------------------------------------

 NO OUTPUT CONTROL FOR STRESS PERIOD   11   TIME STEP    6
 
 SOLVING FOR HEAD 
                                                   Max.-Head-Change                         Max.-Flux-Residual
  Residual-Control   Outer-Iter.   Inner-Iter.     Column Row Layer    Maximum-Head-Change  Column Row Layer    Maximum-Flux-Residual          L2-NORM 
          0                 1           2             4    7     1       0.8901966852E-02       4    7    1         0.4693319313E+00      0.9823196480E+00
          0                 2           2             4    7     1      -0.8659200381E-03       4    7    1        -0.4693328848E-01      0.9820463923E-01
          0                 3           1             4    7     1       0.5896593010E-04       4    7    1         0.3285330700E-02      0.6871820779E-02

    ------------------------------------------------
       NWT REQUIRED            3 OUTER ITERATIONS 
       AND A TOTAL OF          5 INNER ITERATIONS.
    ------------------------------------------------

 NO OUTPUT CONTROL FOR STRESS PERIOD   11   TIME STEP    7
 
 SOLVING FOR HEAD 
                                                   Max.-Head-Change                         Max.-Flux-Residual
  Residual-Control   Outer-Iter.   Inner-Iter.     Column Row Layer    Maximum-Head-Change  Column Row Layer    Maximum-Flux-Residual          L2-NORM 
          0                 1           2             4    7     1       0.8772473568E-02       4    7    1         0.4625352087E+00      0.9656931322E+00
          0                 2           2             4    7     1      -0.8533238505E-03       4    7    1        -0.4625361473E-01      0.9654526174E-01
          0                 3           1             4    7     1       0.5810817646E-04       4    7    1         0.3237753529E-02      0.6756016840E-02

    ------------------------------------------------
       NWT REQUIRED            3 OUTER ITERATIONS 
       AND A TOTAL OF          5 INNER ITERATIONS.
    ------------------------------------------------

 NO OUTPUT CONTROL FOR STRESS PERIOD   11   TIME STEP    8
 
 SOLVING FOR HEAD 
                                                   Max.-Head-Change                         Max.-Flux-Residual
  Residual-Control   Outer-Iter.   Inner-Iter.     Column Row Layer    Maximum-Head-Change  Column Row Layer    Maximum-Flux-Residual          L2-NORM 
          0                 1           2             4    7     1       0.8644360102E-02       4    7    1         0.4558063160E+00      0.9495995239E+00
          0                 2           2             4    7     1      -0.8408618802E-03       4    7    1        -0.4558072390E-01      0.9493858829E-01
          0                 3           1             4    7     1       0.5725956314E-04       4    7    1         0.3190651182E-02      0.6643792228E-02

    ------------------------------------------------
       NWT REQUIRED            3 OUTER ITERATIONS 
       AND A TOTAL OF          5 INNER ITERATIONS.
    ------------------------------------------------

 NO OUTPUT CONTROL FOR STRESS PERIOD   11   TIME STEP    9
 
 SOLVING FOR HEAD 
                                                   Max.-Head-Change                         Max.-Flux-Residual
  Residual-Control   Outer-Iter.   Inner-Iter.     Column Row Layer    Maximum-Head-Change  Column Row Layer    Maximum-Flux-Residual          L2-NORM 
          0                 1           2             4    7     1       0.8517945630E-02       4    7    1         0.4491637665E+00      0.9340036379E+00
          0                 2           2             4    7     1      -0.8285651748E-03       4    7    1        -0.4491646731E-01      0.9338161983E-01
          0                 3           1             4    7     1       0.5642220340E-04       4    7    1         0.3144153208E-02      0.6535035976E-02

    ------------------------------------------------
       NWT REQUIRED            3 OUTER ITERATIONS 
       AND A TOTAL OF          5 INNER ITERATIONS.
    ------------------------------------------------

 NO OUTPUT CONTROL FOR STRESS PERIOD   11   TIME STEP   10
 
 SOLVING FOR HEAD 
                                                   Max.-Head-Change                         Max.-Flux-Residual
  Residual-Control   Outer-Iter.   Inner-Iter.     Column Row Layer    Maximum-Head-Change  Column Row Layer    Maximum-Flux-Residual          L2-NORM 
          0                 1           2             4    7     1       0.8392721958E-02       4    7    1         0.4425797080E+00      0.9188761871E+00
          0                 2           2             4    7     1      -0.8163843016E-03       4    7    1        -0.4425805981E-01      0.9187101896E-01
          0                 3           1             4    7     1       0.5559273198E-04       4    7    1         0.3098064697E-02      0.6429401552E-02

    ------------------------------------------------
       NWT REQUIRED            3 OUTER ITERATIONS 
       AND A TOTAL OF          5 INNER ITERATIONS.
    ------------------------------------------------

 NO OUTPUT CONTROL FOR STRESS PERIOD   11   TIME STEP   11
 
 SOLVING FOR HEAD 
                                                   Max.-Head-Change                         Max.-Flux-Residual
  Residual-Control   Outer-Iter.   Inner-Iter.     Column Row Layer    Maximum-Head-Change  Column Row Layer    Maximum-Flux-Residual          L2-NORM 
          0                 1           2             4    7     1       0.8269286495E-02       4    7    1         0.4360869927E+00      0.9042021818E+00
          0                 2           2             4    7     1      -0.8043773715E-03       4    7    1        -0.4360878658E-01      0.9040541734E-01
          0                 3           1             4    7     1       0.5477510417E-04       4    7    1         0.3052615546E-02      0.6326929991E-02

    ------------------------------------------------
       NWT REQUIRED            3 OUTER ITERATIONS 
       AND A TOTAL OF          5 INNER ITERATIONS.
    ------------------------------------------------

 NO OUTPUT CONTROL FOR STRESS PERIOD   11   TIME STEP   12
 
 SOLVING FOR HEAD 
                                                   Max.-Head-Change                         Max.-Flux-Residual
  Residual-Control   Outer-Iter.   Inner-Iter.     Column Row Layer    Maximum-Head-Change  Column Row Layer    Maximum-Flux-Residual          L2-NORM 
          0                 1           2             4    7     1       0.8147115499E-02       4    7    1         0.4296573930E+00      0.8899362007E+00
          0                 2           2             4    7     1      -0.7924934391E-03       4    7    1        -0.4296582485E-01      0.8898059351E-01
          0                 3           1             4    7     1       0.5396585293E-04       4    7    1         0.3007608238E-02      0.6227482430E-02

    ------------------------------------------------
       NWT REQUIRED            3 OUTER ITERATIONS 
       AND A TOTAL OF          5 INNER ITERATIONS.
    ------------------------------------------------

 NO OUTPUT CONTROL FOR STRESS PERIOD   11   TIME STEP   13
 
 SOLVING FOR HEAD 
                                                   Max.-Head-Change                         Max.-Flux-Residual
  Residual-Control   Outer-Iter.   Inner-Iter.     Column Row Layer    Maximum-Head-Change  Column Row Layer    Maximum-Flux-Residual          L2-NORM 
          0                 1           2             4    7     1       0.8026799300E-02       4    7    1         0.4233229570E+00      0.8760895882E+00
          0                 2           2             4    7     1      -0.7807899276E-03       4    7    1        -0.4233237952E-01      0.8759748778E-01
          0                 3           1             4    7     1       0.5316888693E-04       4    7    1         0.2963267044E-02      0.6130792493E-02

    ------------------------------------------------
       NWT REQUIRED            3 OUTER ITERATIONS 
       AND A TOTAL OF          5 INNER ITERATIONS.
    ------------------------------------------------

 NO OUTPUT CONTROL FOR STRESS PERIOD   11   TIME STEP   14
 
 SOLVING FOR HEAD 
                                                   Max.-Head-Change                         Max.-Flux-Residual
  Residual-Control   Outer-Iter.   Inner-Iter.     Column Row Layer    Maximum-Head-Change  Column Row Layer    Maximum-Flux-Residual          L2-NORM 
          0                 1           2             4    7     1       0.7908070049E-02       4    7    1         0.4170698894E+00      0.8626265756E+00
          0                 2           2             4    7     1      -0.7692407828E-03       4    7    1        -0.4170707100E-01      0.8625216671E-01
          0                 3           1             4    7     1       0.5238243348E-04       4    7    1         0.2919495448E-02      0.6036557051E-02

    ------------------------------------------------
       NWT REQUIRED            3 OUTER ITERATIONS 
       AND A TOTAL OF          5 INNER ITERATIONS.
    ------------------------------------------------

 NO OUTPUT CONTROL FOR STRESS PERIOD   11   TIME STEP   15
 
 SOLVING FOR HEAD 
                                                   Max.-Head-Change                         Max.-Flux-Residual
  Residual-Control   Outer-Iter.   Inner-Iter.     Column Row Layer    Maximum-Head-Change  Column Row Layer    Maximum-Flux-Residual          L2-NORM 
          0                 1           2             4    7     1       0.7790948617E-02       4    7    1         0.4108991035E+00      0.8495352696E+00
          0                 2           2             4    7     1      -0.7578480352E-03       4    7    1        -0.4108999064E-01      0.8494444884E-01
          0                 3           1             4    7     1       0.5160663033E-04       4    7    1         0.2876299839E-02      0.5945324257E-02

    ------------------------------------------------
       NWT REQUIRED            3 OUTER ITERATIONS 
       AND A TOTAL OF          5 INNER ITERATIONS.
    ------------------------------------------------

 NO OUTPUT CONTROL FOR STRESS PERIOD   11   TIME STEP   16
 
 SOLVING FOR HEAD 
                                                   Max.-Head-Change                         Max.-Flux-Residual
  Residual-Control   Outer-Iter.   Inner-Iter.     Column Row Layer    Maximum-Head-Change  Column Row Layer    Maximum-Flux-Residual          L2-NORM 
          0                 1           2             4    7     1       0.7675454421E-02       4    7    1         0.4048116816E+00      0.8367969205E+00
          0                 2           2             4    7     1      -0.7466135728E-03       4    7    1        -0.4048124669E-01      0.8367165446E-01
          0                 3           1             4    7     1       0.5084160504E-04       4    7    1         0.2833687735E-02      0.5856275053E-02

    ------------------------------------------------
       NWT REQUIRED            3 OUTER ITERATIONS 
       AND A TOTAL OF          5 INNER ITERATIONS.
    ------------------------------------------------

 NO OUTPUT CONTROL FOR STRESS PERIOD   11   TIME STEP   17
 
 SOLVING FOR HEAD 
                                                   Max.-Head-Change                         Max.-Flux-Residual
  Residual-Control   Outer-Iter.   Inner-Iter.     Column Row Layer    Maximum-Head-Change  Column Row Layer    Maximum-Flux-Residual          L2-NORM 
          0                 1           2             4    7     1       0.7561595943E-02       4    7    1         0.3988086302E+00      0.8243983244E+00
          0                 2           2             4    7     1      -0.7355382216E-03       4    7    1        -0.3988093977E-01      0.8243259532E-01
          0                 3           1             4    7     1       0.5008741490E-04       4    7    1         0.2791666267E-02      0.5769663083E-02

    ------------------------------------------------
       NWT REQUIRED            3 OUTER ITERATIONS 
       AND A TOTAL OF          5 INNER ITERATIONS.
    ------------------------------------------------

 NO OUTPUT CONTROL FOR STRESS PERIOD   11   TIME STEP   18
 
 SOLVING FOR HEAD 
                                                   Max.-Head-Change                         Max.-Flux-Residual
  Residual-Control   Outer-Iter.   Inner-Iter.     Column Row Layer    Maximum-Head-Change  Column Row Layer    Maximum-Flux-Residual          L2-NORM 
          0                 1           2             4    7     1       0.7449378734E-02       4    7    1         0.3928903891E+00      0.8123172996E+00
          0                 2           2             4    7     1      -0.7246225213E-03       4    7    1        -0.3928911393E-01      0.8122537120E-01
          0                 3           1             4    7     1       0.4934409657E-04       4    7    1         0.2750238453E-02      0.5685227113E-02

    ------------------------------------------------
       NWT REQUIRED            3 OUTER ITERATIONS 
       AND A TOTAL OF          5 INNER ITERATIONS.
    ------------------------------------------------

 NO OUTPUT CONTROL FOR STRESS PERIOD   11   TIME STEP   19
 
 SOLVING FOR HEAD 
                                                   Max.-Head-Change                         Max.-Flux-Residual
  Residual-Control   Outer-Iter.   Inner-Iter.     Column Row Layer    Maximum-Head-Change  Column Row Layer    Maximum-Flux-Residual          L2-NORM 
          0                 1           2             4    7     1       0.7339088611E-02       4    7    1         0.3870720488E+00      0.8005707822E+00
          0                 2           2             4    7     1      -0.7138942736E-03       4    7    1        -0.3870727814E-01      0.8005141159E-01
          0                 3           1             4    7     1       0.4861354275E-04       4    7    1         0.2709509939E-02      0.5603068357E-02

    ------------------------------------------------
       NWT REQUIRED            3 OUTER ITERATIONS 
       AND A TOTAL OF          5 INNER ITERATIONS.
    ------------------------------------------------

 NO OUTPUT CONTROL FOR STRESS PERIOD   11   TIME STEP   20
 
 SOLVING FOR HEAD 
                                                   Max.-Head-Change                         Max.-Flux-Residual
  Residual-Control   Outer-Iter.   Inner-Iter.     Column Row Layer    Maximum-Head-Change  Column Row Layer    Maximum-Flux-Residual          L2-NORM 
          0                 1           2             4    7     1       0.7230161888E-02       4    7    1         0.3813240204E+00      0.7891023936E+00
          0                 2           2             4    7     1      -0.7032986481E-03       4    7    1        -0.3813247356E-01      0.7890502326E-01
          0                 3           1             4    7     1       0.4789202014E-04       4    7    1         0.2669273621E-02      0.5522757991E-02

    ------------------------------------------------
       NWT REQUIRED            3 OUTER ITERATIONS 
       AND A TOTAL OF          5 INNER ITERATIONS.
    ------------------------------------------------

 NO OUTPUT CONTROL FOR STRESS PERIOD   11   TIME STEP   21
 
 SOLVING FOR HEAD 
                                                   Max.-Head-Change                         Max.-Flux-Residual
  Residual-Control   Outer-Iter.   Inner-Iter.     Column Row Layer    Maximum-Head-Change  Column Row Layer    Maximum-Flux-Residual          L2-NORM 
          0                 1           2             4    7     1       0.7123164070E-02       4    7    1         0.3756762888E+00      0.7779459994E+00
          0                 2           2             4    7     1      -0.6928906533E-03       4    7    1        -0.3756769870E-01      0.7779002956E-01
          0                 3           1             4    7     1       0.4718327528E-04       4    7    1         0.2629739403E-02      0.5444851800E-02

    ------------------------------------------------
       NWT REQUIRED            3 OUTER ITERATIONS 
       AND A TOTAL OF          5 INNER ITERATIONS.
    ------------------------------------------------

 NO OUTPUT CONTROL FOR STRESS PERIOD   11   TIME STEP   22
 
 SOLVING FOR HEAD 
                                                   Max.-Head-Change                         Max.-Flux-Residual
  Residual-Control   Outer-Iter.   Inner-Iter.     Column Row Layer    Maximum-Head-Change  Column Row Layer    Maximum-Flux-Residual          L2-NORM 
          0                 1           2             4    7     1       0.7017792326E-02       4    7    1         0.3701137658E+00      0.7670471674E+00
          0                 2           2             4    7     1      -0.6826408309E-03       4    7    1        -0.3701144471E-01      0.7670063768E-01
          0                 3           1             4    7     1       0.4648530048E-04       4    7    1         0.2590801624E-02      0.5368641564E-02

    ------------------------------------------------
       NWT REQUIRED            3 OUTER ITERATIONS 
       AND A TOTAL OF          5 INNER ITERATIONS.
    ------------------------------------------------

 NO OUTPUT CONTROL FOR STRESS PERIOD   11   TIME STEP   23
 
 SOLVING FOR HEAD 
                                                   Max.-Head-Change                         Max.-Flux-Residual
  Residual-Control   Outer-Iter.   Inner-Iter.     Column Row Layer    Maximum-Head-Change  Column Row Layer    Maximum-Flux-Residual          L2-NORM 
          0                 1           2             4    7     1       0.6914320161E-02       4    7    1         0.3646503562E+00      0.7564268450E+00
          0                 2           2             4    7     1      -0.6725757857E-03       4    7    1        -0.3646510208E-01      0.7563911893E-01
          0                 3           1             4    7     1       0.4579990841E-04       4    7    1         0.2552557631E-02      0.5294428691E-02

    ------------------------------------------------
       NWT REQUIRED            3 OUTER ITERATIONS 
       AND A TOTAL OF          5 INNER ITERATIONS.
    ------------------------------------------------

 NO OUTPUT CONTROL FOR STRESS PERIOD   11   TIME STEP   24
 
 SOLVING FOR HEAD 
                                                   Max.-Head-Change                         Max.-Flux-Residual
  Residual-Control   Outer-Iter.   Inner-Iter.     Column Row Layer    Maximum-Head-Change  Column Row Layer    Maximum-Flux-Residual          L2-NORM 
          0                 1           2             4    7     1       0.6812189525E-02       4    7    1         0.3592558305E+00      0.7460662143E+00
          0                 2           2             4    7     1      -0.6626412359E-03       4    7    1        -0.3592564789E-01      0.7460339295E-01
          0                 3           1             4    7     1       0.4512340271E-04       4    7    1         0.2514795843E-02      0.5221918660E-02

    ------------------------------------------------
       NWT REQUIRED            3 OUTER ITERATIONS 
       AND A TOTAL OF          5 INNER ITERATIONS.
    ------------------------------------------------

 NO OUTPUT CONTROL FOR STRESS PERIOD   11   TIME STEP   25
 
 SOLVING FOR HEAD 
                                                   Max.-Head-Change                         Max.-Flux-Residual
  Residual-Control   Outer-Iter.   Inner-Iter.     Column Row Layer    Maximum-Head-Change  Column Row Layer    Maximum-Flux-Residual          L2-NORM 
          0                 1           2             4    7     1       0.6711940379E-02       4    7    1         0.3539604694E+00      0.7359518777E+00
          0                 2           2             4    7     1      -0.6528897035E-03       4    7    1        -0.3539611017E-01      0.7359239990E-01
          0                 3           1             4    7     1       0.4445935952E-04       4    7    1         0.2477728181E-02      0.5151265495E-02

    ------------------------------------------------
       NWT REQUIRED            3 OUTER ITERATIONS 
       AND A TOTAL OF          5 INNER ITERATIONS.
    ------------------------------------------------

 NO OUTPUT CONTROL FOR STRESS PERIOD   11   TIME STEP   26
 
 SOLVING FOR HEAD 
                                                   Max.-Head-Change                         Max.-Flux-Residual
  Residual-Control   Outer-Iter.   Inner-Iter.     Column Row Layer    Maximum-Head-Change  Column Row Layer    Maximum-Flux-Residual          L2-NORM 
          0                 1           2             4    7     1       0.6613278354E-02       4    7    1         0.3487478574E+00      0.7260764272E+00
          0                 2           2             4    7     1      -0.6432925553E-03       4    7    1        -0.3487484736E-01      0.7260510596E-01
          0                 3           1             4    7     1       0.4380582912E-04       4    7    1         0.2441239778E-02      0.5082087694E-02

    ------------------------------------------------
       NWT REQUIRED            3 OUTER ITERATIONS 
       AND A TOTAL OF          5 INNER ITERATIONS.
    ------------------------------------------------

 NO OUTPUT CONTROL FOR STRESS PERIOD   11   TIME STEP   27
 
 SOLVING FOR HEAD 
                                                   Max.-Head-Change                         Max.-Flux-Residual
  Residual-Control   Outer-Iter.   Inner-Iter.     Column Row Layer    Maximum-Head-Change  Column Row Layer    Maximum-Flux-Residual          L2-NORM 
          0                 1           2             4    7     1       0.6516194649E-02       4    7    1         0.3436175356E+00      0.7164433186E+00
          0                 2           2             4    7     1      -0.6338489353E-03       4    7    1        -0.3436181364E-01      0.7164201844E-01
          0                 3           1             4    7     1       0.4316275423E-04       4    7    1         0.2405327428E-02      0.5014737506E-02

    ------------------------------------------------
       NWT REQUIRED            3 OUTER ITERATIONS 
       AND A TOTAL OF          5 INNER ITERATIONS.
    ------------------------------------------------

 NO OUTPUT CONTROL FOR STRESS PERIOD   11   TIME STEP   28
 
 SOLVING FOR HEAD 
                                                   Max.-Head-Change                         Max.-Flux-Residual
  Residual-Control   Outer-Iter.   Inner-Iter.     Column Row Layer    Maximum-Head-Change  Column Row Layer    Maximum-Flux-Residual          L2-NORM 
          0                 1           2             4    7     1       0.6420946416E-02       4    7    1         0.3385838527E+00      0.7070331970E+00
          0                 2           2             4    7     1      -0.6246102190E-03       4    7    1        -0.3385844380E-01      0.7075022545E-01
          0                 3           1             4    7     1       0.4253363171E-04       4    7    1         0.2370091529E-02      0.4952341340E-02

    ------------------------------------------------
       NWT REQUIRED            3 OUTER ITERATIONS 
       AND A TOTAL OF          5 INNER ITERATIONS.
    ------------------------------------------------

 NO OUTPUT CONTROL FOR STRESS PERIOD   11   TIME STEP   29
 
 SOLVING FOR HEAD 
                                                   Max.-Head-Change                         Max.-Flux-Residual
  Residual-Control   Outer-Iter.   Inner-Iter.     Column Row Layer    Maximum-Head-Change  Column Row Layer    Maximum-Flux-Residual          L2-NORM 
          0                 1           2             4    7     1       0.6327137353E-02       4    7    1         0.3336291310E+00      0.6977974256E+00
          0                 2           2             4    7     1      -0.6154587758E-03       4    7    1        -0.3336297020E-01      0.6977794608E-01
          0                 3           1             4    7     1       0.4191045300E-04       4    7    1         0.2335408392E-02      0.4884354019E-02

    ------------------------------------------------
       NWT REQUIRED            3 OUTER ITERATIONS 
       AND A TOTAL OF          5 INNER ITERATIONS.
    ------------------------------------------------

 NO OUTPUT CONTROL FOR STRESS PERIOD   11   TIME STEP   30



 STREAM LISTING     PERIOD     11   STEP       30

 LAYER ROW COL. STREAM  RCH.  FLOW INTO     FLOW TO   FLOW OUT OF   OVRLND.     DIRECT     STREAM       STREAM     STREAM     STREAM   STREAMBED  STREAMBED
                SEG.NO.  NO.  STRM. RCH.    AQUIFER    STRM. RCH.    RUNOFF     PRECIP       ET          HEAD       DEPTH      WIDTH   CONDCTNC.   GRADIENT

   1    1    1     1     1    2.6250E+01  2.5084E-01   2.5999E+01  0.000E+00  0.000E+00  0.000E+00  1.09424E+03  1.197E+00  1.328E+01  5.977E-02  1.399E+00
   1    2    2     1     2    2.5999E+01  3.8795E-01   2.5611E+01  0.000E+00  0.000E+00  0.000E+00  1.08925E+03  1.192E+00  1.322E+01  9.255E-02  1.397E+00
   1    3    3     1     3    2.5611E+01  3.3035E-01   2.5281E+01  0.000E+00  0.000E+00  0.000E+00  1.08361E+03  1.187E+00  1.315E+01  7.890E-02  1.396E+00
   1    3    4     1     4    2.5281E+01  3.0378E-01   2.4977E+01  0.000E+00  0.000E+00  0.000E+00  1.07859E+03  1.182E+00  1.309E+01  7.264E-02  1.394E+00
   1    4    5     2     1    2.2977E+01  3.2316E-01   2.2654E+01  0.000E+00  0.000E+00  0.000E+00  1.07308E+03  1.143E+00  1.200E+01  7.800E-02  1.381E+00
   1    5    6     2     2    2.2654E+01  2.4807E-01   2.2406E+01  0.000E+00  0.000E+00  0.000E+00  1.06764E+03  1.134E+00  1.200E+01  6.000E-02  1.378E+00
   1    6    6     2     3    2.2406E+01  2.4762E-01   2.2158E+01  0.000E+00  0.000E+00  0.000E+00  1.06292E+03  1.127E+00  1.200E+01  6.000E-02  1.376E+00
   1    7    6     2     4    2.2158E+01  2.4717E-01   2.1911E+01  0.000E+00  0.000E+00  0.000E+00  1.05819E+03  1.119E+00  1.200E+01  6.000E-02  1.373E+00
   1    8    6     2     5    2.1911E+01  2.4671E-01   2.1664E+01  0.000E+00  0.000E+00  0.000E+00  1.05347E+03  1.112E+00  1.200E+01  6.000E-02  1.371E+00
   1    3    5     3     1    2.0000E+00  2.8252E-01   1.7175E+00  0.000E+00  0.000E+00  0.000E+00  1.07555E+03  1.909E+00  9.636E+00  7.227E-02  1.955E+00
   1    3    6     3     2    1.7175E+00  2.4905E-01   1.4684E+00  0.000E+00  0.000E+00  0.000E+00  1.07264E+03  1.727E+00  8.909E+00  6.682E-02  1.864E+00
   1    3    7     3     3    1.4684E+00  1.9718E-01   1.2712E+00  0.000E+00  0.000E+00  0.000E+00  1.06987E+03  1.555E+00  8.218E+00  5.547E-02  1.777E+00
   1    4    8     3     4    1.2712E+00  2.2567E-01   1.0456E+00  0.000E+00  0.000E+00  0.000E+00  1.06682E+03  1.364E+00  7.455E+00  6.709E-02  1.682E+00
   1    5    8     3     5    1.0456E+00  1.5790E-01   8.8768E-01  0.000E+00  0.000E+00  0.000E+00  1.06362E+03  1.164E+00  6.655E+00  4.991E-02  1.582E+00
   1    6    8     3     6    8.8768E-01  5.5980E-02   8.3170E-01  0.000E+00  0.000E+00  0.000E+00  1.06158E+03  1.036E+00  6.145E+00  1.844E-02  1.518E+00
   1    5   10     4     1    1.0000E+01  9.0919E-02   9.9091E+00  0.000E+00  0.000E+00  0.000E+00  1.07836E+03  6.368E-01  1.000E+01  2.500E-02  1.212E+00
   1    5    9     4     2    9.9091E+00  1.8158E-01   9.7275E+00  0.000E+00  0.000E+00  0.000E+00  1.07154E+03  6.315E-01  1.000E+01  5.000E-02  1.211E+00
   1    6    8     4     3    9.7275E+00  1.2689E-01   9.6006E+00  0.000E+00  0.000E+00  0.000E+00  1.06381E+03  6.256E-01  1.000E+01  3.500E-02  1.209E+00
   1    6    8     5     1    1.0432E+01  2.2686E-01   1.0205E+01  0.000E+00  0.000E+00  0.000E+00  1.05868E+03  6.790E-01  1.542E+01  6.166E-02  1.226E+00
   1    7    7     5     2    1.0205E+01  2.7894E-01   9.9265E+00  0.000E+00  0.000E+00  0.000E+00  1.05417E+03  6.732E-01  1.519E+01  7.594E-02  1.224E+00
   1    8    7     5     3    9.9265E+00  1.9221E-01   9.7343E+00  0.000E+00  0.000E+00  0.000E+00  1.04992E+03  6.676E-01  1.497E+01  5.241E-02  1.223E+00
   1    8    6     5     4    9.7343E+00  1.3577E-01   9.5985E+00  0.000E+00  0.000E+00  0.000E+00  1.04691E+03  6.637E-01  1.482E+01  3.706E-02  1.221E+00
   1    9    6     6     1    3.1263E+01  2.6357E-01   3.0999E+01  0.000E+00  0.000E+00  0.000E+00  1.04412E+03  1.393E+00  1.200E+01  6.000E-02  1.464E+00
   1   10    7     6     2    3.0999E+01  2.6314E-01   3.0736E+01  0.000E+00  0.000E+00  0.000E+00  1.03957E+03  1.386E+00  1.200E+01  6.000E-02  1.462E+00
   1   11    7     6     3    3.0736E+01  2.6272E-01   3.0473E+01  0.000E+00  0.000E+00  0.000E+00  1.03502E+03  1.379E+00  1.200E+01  6.000E-02  1.460E+00
   1   12    7     6     4    3.0473E+01  2.6229E-01   3.0211E+01  0.000E+00  0.000E+00  0.000E+00  1.03046E+03  1.372E+00  1.200E+01  6.000E-02  1.457E+00
   1   13    7     6     5    3.0211E+01  3.4236E-03   3.0208E+01  0.000E+00  0.000E+00  0.000E+00  1.02728E+03  1.368E+00  1.200E+01  2.400E-02  4.755E-02
   1   14    9     7     1    1.5000E+02  1.3358E+00   1.4866E+02  0.000E+00  0.000E+00  0.000E+00  1.03987E+03  2.288E+00  5.529E+01  5.593E-01  7.961E-01
   1   13    8     7     2    1.4866E+02  1.8224E+00   1.4684E+02  0.000E+00  0.000E+00  0.000E+00  1.03478E+03  2.279E+00  5.526E+01  6.148E-01  9.881E-01
   1   13    7     7     3    1.4684E+02  1.4272E+00   1.4541E+02  0.000E+00  0.000E+00  0.000E+00  1.02969E+03  2.271E+00  5.522E+01  5.585E-01  8.519E-01
   1   13    6     8     1    1.7562E+02  8.9452E-01   1.7473E+02  0.000E+00  0.000E+00  0.000E+00  1.02486E+03  2.986E+00  4.329E+01  4.412E-01  6.759E-01
   1   13    5     8     2    1.7473E+02  1.3564E-01   1.7459E+02  0.000E+00  0.000E+00  0.000E+00  1.01861E+03  2.982E+00  4.324E+01  4.407E-01  1.026E-01
   1   13    4     8     3    1.7459E+02 -2.6018E+00   1.7719E+02  0.000E+00  0.000E+00  0.000E+00  1.01237E+03  2.990E+00  4.336E+01  4.418E+00 -1.963E-01
   1   13    3     8     4    1.7719E+02 -3.7181E+00   1.8091E+02  0.000E+00  0.000E+00  0.000E+00  1.00614E+03  3.010E+00  4.365E+01  4.448E+00 -2.786E-01
   1   13    2     8     5    1.8091E+02 -2.5730E+00   1.8348E+02  0.000E+00  0.000E+00  0.000E+00  9.99905E+02  3.030E+00  4.393E+01  4.477E+00 -1.916E-01
   1   13    1     8     6    1.8348E+02 -1.9605E+00   1.8545E+02  0.000E+00  0.000E+00  0.000E+00  9.94919E+02  3.044E+00  4.414E+01  2.699E+00 -2.422E-01
   1    8    6     9     1    0.0000E+00  0.0000E+00   0.0000E+00  0.000E+00  0.000E+00  0.000E+00  1.07875E+03  0.000E+00  4.000E+00  0.000E+00  1.000E+00
   1    8    5     9     2    0.0000E+00  0.0000E+00   0.0000E+00  0.000E+00  0.000E+00  0.000E+00  1.07825E+03  0.000E+00  4.000E+00  0.000E+00  1.000E+00





UNSATURATED ZONE PACKAGE VOLUMETRIC BUDGET FOR  TIME STEP    30 STRESS PERIOD   11
  ------------------------------------------------------------------------------



     CUMULATIVE VOLUMES      L**3       RATES FOR THIS TIME STEP      L**3/T
     ------------------                 ------------------------

           IN:                                      IN:
           ---                                      ---
        INFILTRATION =   430438055.3690          INFILTRATION =           0.8475

          OUT:                                     OUT:
          ----                                     ----
              UZF ET =   426082980.1129                UZF ET =           0.8475
        UZF RECHARGE =       73224.0000          UZF RECHARGE =       0.0000E+00

            IN - OUT =     4281851.2561              IN - OUT =       0.0000E+00

          STORAGE:                                 STORAGE:
          --------                                 --------
      STORAGE CHANGE =     4282054.1466        STORAGE CHANGE =      -1.6122E-14

 PERCENT DISCREPANCY IS DIFFERENCE BETWEEN IN-OUT MINUS CHANGE IN STORAGE
 DIVIDED BY THE AVERAGE OF IN AND OUT TIMES 100

 PERCENT DISCREPANCY =          -0.00     PERCENT DISCREPANCY =           0.00






1
  VOLUMETRIC BUDGET FOR AGRICULTURAL FIELDS AT  END OF TIME STEP   30, STRESS PERIOD  11
  ------------------------------------------------------------------------------

     CUMULATIVE VOLUMES      L**3       RATES FOR THIS TIME STEP      L**3/T
     ------------------                 ------------------------

           IN:                                      IN:
           ---                                      ---
               AG WELLS  =    49128108.0000                 AG WELLS  =           0.0000
      DIVERSION SEGMENTS =   358973504.0000        DIVERSION SEGMENTS =           0.0000
       IRRIGATION PONDS  =           0.0000         IRRIGATION PONDS  =           0.0000
           GW IRRIGATION =           0.0000             GW IRRIGATION =           0.0000
           SW IRRIGATION =           0.0000             SW IRRIGATION =           0.0000
        SYSTEM LOSSES GW =           0.0000          SYSTEM LOSSES GW =           0.0000
        SYSTEM LOSSES SW =           0.0000          SYSTEM LOSSES SW =           0.0000

                TOTAL IN =   408101600.0000                  TOTAL IN =           0.0000

          OUT:                                     OUT:
          ----                                     ----
               AG WELLS  =           0.0000                 AG WELLS  =           0.0000
      DIVERSION SEGMENTS =           0.0000        DIVERSION SEGMENTS =           0.0000
       IRRIGATION PONDS  =           0.0000         IRRIGATION PONDS  =           0.0000
           GW IRRIGATION =    49128108.0000             GW IRRIGATION =           0.0000
           SW IRRIGATION =   358980608.0000             SW IRRIGATION =           0.0000
        SYSTEM LOSSES GW =           0.0000          SYSTEM LOSSES GW =           0.0000
        SYSTEM LOSSES SW =           0.0000          SYSTEM LOSSES SW =           0.0000

               TOTAL OUT =   408108704.0000                 TOTAL OUT =           0.0000

                IN - OUT =       -7104.0000                  IN - OUT =           0.0000

     PERCENT DISCREPANCY =          -0.00         PERCENT DISCREPANCY =           0.00



1
  VOLUMETRIC BUDGET FOR ENTIRE MODEL AT END OF TIME STEP   30, STRESS PERIOD  11
  ------------------------------------------------------------------------------

     CUMULATIVE VOLUMES      L**3       RATES FOR THIS TIME STEP      L**3/T
     ------------------                 ------------------------

           IN:                                      IN:
           ---                                      ---
             STORAGE     =    78412464.0000               STORAGE     =           1.5000
       CONSTANT HEAD     =           0.0000         CONSTANT HEAD     =           0.0000
     HEAD DEP BOUNDS     =     7539520.5000       HEAD DEP BOUNDS     =           0.2858
      STREAM LEAKAGE     =   319473504.0000        STREAM LEAKAGE     =          11.6579
        UZF RECHARGE     =       73223.9531          UZF RECHARGE     =           0.0000
               GW ET     =           0.0000                 GW ET     =           0.0000
     SURFACE LEAKAGE     =           0.0000       SURFACE LEAKAGE     =           0.0000
           AG WELLS      =           0.0000             AG WELLS      =           0.0000

                TOTAL IN =   405498688.0000                  TOTAL IN =          13.4437

          OUT:                                     OUT:
          ----                                     ----
             STORAGE     =    62281880.0000               STORAGE     =           2.2998
       CONSTANT HEAD     =           0.0000         CONSTANT HEAD     =           0.0000
     HEAD DEP BOUNDS     =     7676776.5000       HEAD DEP BOUNDS     =           0.2905
      STREAM LEAKAGE     =   284875136.0000        STREAM LEAKAGE     =          10.8535
        UZF RECHARGE     =           0.0000          UZF RECHARGE     =           0.0000
               GW ET     =     1538617.0000                 GW ET     =           0.0000
     SURFACE LEAKAGE     =           0.0000       SURFACE LEAKAGE     =           0.0000
           AG WELLS      =    49128108.0000             AG WELLS      =           0.0000

               TOTAL OUT =   405500512.0000                 TOTAL OUT =          13.4439

                IN - OUT =       -1824.0000                  IN - OUT =      -2.2602E-04

     PERCENT DISCREPANCY =          -0.00         PERCENT DISCREPANCY =          -0.00






         TIME SUMMARY AT END OF TIME STEP   30 IN STRESS PERIOD   11
                    SECONDS     MINUTES      HOURS       DAYS        YEARS
                    -----------------------------------------------------------
   TIME STEP LENGTH  87667.      1461.1      24.352      1.0147     2.77799E-03
 STRESS PERIOD TIME 2.63000E+06  43833.      730.56      30.440     8.33397E-02
         TOTAL TIME 2.63864E+07 4.39773E+05  7329.5      305.40     0.83613    
1
1
                            STRESS PERIOD NO.   12, LENGTH =   2630000.    
                            -----------------------------------------------

                              NUMBER OF TIME STEPS =    30

                               MULTIPLIER FOR DELT =     1.000

                            INITIAL TIME STEP SIZE =   87666.66    

 REUSING NON-PARAMETER GHB CELLS FROM LAST STRESS PERIOD

      2 GHB CELLS

 REUSING STREAM SEGMENT DATA FROM LAST STRESS PERIOD



            AREAL INFILTRATION RATE
 READING ON UNIT   19 WITH FORMAT: (FREE)              

            1           2           3           4           5           6           7           8           9          10
 ........................................................................................................................
   1   1.0000E-10  2.0000E-10   0.000       0.000       0.000       0.000       0.000       0.000       0.000       0.000    
   2   2.0000E-10  1.0000E-10  2.0000E-10   0.000       0.000      8.0000E-10  8.0000E-10  5.0000E-10   0.000       0.000    
   3    0.000      5.0000E-10  1.0000E-10  1.0000E-10  8.0000E-10  8.0000E-10  5.0000E-10  5.0000E-10   0.000       0.000    
   4   8.0000E-10  5.0000E-10  1.0000E-10  1.0000E-10  1.0000E-10  1.0000E-10  1.0000E-10  1.0000E-10  2.0000E-10   0.000    
   5   8.0000E-10  5.0000E-10  1.0000E-10  1.0000E-10  1.0000E-10  1.0000E-10  1.0000E-10  1.0000E-10  1.0000E-10  1.0000E-10
   6   8.0000E-10  5.0000E-10  5.0000E-10  2.0000E-10  2.0000E-10  1.0000E-10  1.0000E-10  1.0000E-10  1.0000E-10  5.0000E-10
   7   8.0000E-10  5.0000E-10  5.0000E-10  2.0000E-10  2.0000E-10  1.0000E-10  1.0000E-10  2.0000E-10  2.0000E-10   0.000    
   8    0.000      5.0000E-10  5.0000E-10  2.0000E-10  2.0000E-10  1.0000E-10  1.0000E-10  2.0000E-10  5.0000E-10   0.000    
   9    0.000      5.0000E-10  5.0000E-10  2.0000E-10  2.0000E-10  1.0000E-10  1.0000E-10  2.0000E-10  5.0000E-10   0.000    
  10    0.000      5.0000E-10  5.0000E-10  2.0000E-10  2.0000E-10  1.0000E-10  1.0000E-10  2.0000E-10  5.0000E-10  8.0000E-10
  11    0.000      1.0000E-10  1.0000E-10  1.0000E-10  1.0000E-10  1.0000E-10  1.0000E-10  2.0000E-10  5.0000E-10   0.000    
  12   1.0000E-10  1.0000E-10  1.0000E-10  1.0000E-10  1.0000E-10  1.0000E-10  1.0000E-10  1.0000E-10  2.0000E-10   0.000    
  13   1.0000E-10  1.0000E-10  2.0000E-10  2.0000E-10  2.0000E-10  2.0000E-10  2.0000E-10  1.0000E-10  1.0000E-10   0.000    
  14    0.000      2.0000E-10  5.0000E-10  5.0000E-10  5.0000E-10  5.0000E-10  5.0000E-10  2.0000E-10  1.0000E-10   0.000    
  15    0.000       0.000      8.0000E-10  8.0000E-10  8.0000E-10  8.0000E-10   0.000       0.000       0.000       0.000    

                  ET RATE =  5.000000E-10

 USING ET EXTINCTION DEPTH FROM PREVIOUS STRESS PERIOD. CURRENT PERIOD IS:      12

 USING EXTINCTION WATER CONTENT FROM PREVIOUS STRESS PERIOD. CURRENT PERIOD IS:      12

 USING AIR ENTRY PRESSURE FROM PREVIOUS STRESS PERIOD. CURRENT PERIOD IS:      12

 USING ROOT PRESSURE HEAD FROM PREVIOUS STRESS PERIOD. CURRENT PERIOD IS:      12

 USING ROOT ACTIVITY FROM PREVIOUS STRESS PERIOD. CURRENT PERIOD IS:      12

 PROCESSING AG STRESS PERIOD DATA

 READING AG STRESS PERIOD DATA

 READING IRRIGATION SEGMENT

 READING IRRIGATION WELL

 READING SUPPLEMENTAL WELL

 NO IRRPOND OR REUSING IRRPOND DATA FROM LAST STRESS PERIOD

 END PROCESSING AG STRESS PERIOD DATA OPTIONS
 
 SOLVING FOR HEAD 
                                                   Max.-Head-Change                         Max.-Flux-Residual
  Residual-Control   Outer-Iter.   Inner-Iter.     Column Row Layer    Maximum-Head-Change  Column Row Layer    Maximum-Flux-Residual          L2-NORM 
          0                 1           2             4    7     1       0.6234798158E-02       4    7    1         0.3287518295E+00      0.7150676445E+00
          0                 2           2             4    7     1      -0.6064766685E-03       4    7    1        -0.3287523863E-01      0.7149116818E-01
          0                 3           1             4    7     1       0.4129880453E-04       4    7    1         0.2301267157E-02      0.4992343144E-02

    ------------------------------------------------
       NWT REQUIRED            3 OUTER ITERATIONS 
       AND A TOTAL OF          5 INNER ITERATIONS.
    ------------------------------------------------

 NO OUTPUT CONTROL FOR STRESS PERIOD   12   TIME STEP    1
 
 SOLVING FOR HEAD 
                                                   Max.-Head-Change                         Max.-Flux-Residual
  Residual-Control   Outer-Iter.   Inner-Iter.     Column Row Layer    Maximum-Head-Change  Column Row Layer    Maximum-Flux-Residual          L2-NORM 
          0                 1           2             4    7     1       0.6143876252E-02       4    7    1         0.3239493379E+00      0.7138569468E+00
          0                 2           2             4    7     1      -0.5976324257E-03       4    7    1        -0.3239498807E-01      0.7121571902E-01
          0                 3           1             4    7     1       0.4069654490E-04       4    7    1         0.2267649630E-02      0.4969592285E-02

    ------------------------------------------------
       NWT REQUIRED            3 OUTER ITERATIONS 
       AND A TOTAL OF          5 INNER ITERATIONS.
    ------------------------------------------------

 NO OUTPUT CONTROL FOR STRESS PERIOD   12   TIME STEP    2
 
 SOLVING FOR HEAD 
                                                   Max.-Head-Change                         Max.-Flux-Residual
  Residual-Control   Outer-Iter.   Inner-Iter.     Column Row Layer    Maximum-Head-Change  Column Row Layer    Maximum-Flux-Residual          L2-NORM 
          0                 1           2             4    7     1       0.6054637054E-02       4    7    1         0.3192351362E+00      0.7003017905E+00
          0                 2           2             4    7     1      -0.5889518649E-03       4    7    1        -0.3192356654E-01      0.6988217845E-01
          0                 3           1             4    7     1       0.4010543116E-04       4    7    1         0.2234650129E-02      0.4878339750E-02

    ------------------------------------------------
       NWT REQUIRED            3 OUTER ITERATIONS 
       AND A TOTAL OF          5 INNER ITERATIONS.
    ------------------------------------------------

 NO OUTPUT CONTROL FOR STRESS PERIOD   12   TIME STEP    3
 
 SOLVING FOR HEAD 
                                                   Max.-Head-Change                         Max.-Flux-Residual
  Residual-Control   Outer-Iter.   Inner-Iter.     Column Row Layer    Maximum-Head-Change  Column Row Layer    Maximum-Flux-Residual          L2-NORM 
          0                 1           2             4    7     1       0.5966789949E-02       4    7    1         0.3145933756E+00      0.6876019624E+00
          0                 2           2             4    7     1      -0.5804067170E-03       4    7    1        -0.3145938913E-01      0.6863158105E-01
          0                 3           1             4    7     1       0.3952353844E-04       4    7    1         0.2202157710E-02      0.4792510298E-02

    ------------------------------------------------
       NWT REQUIRED            3 OUTER ITERATIONS 
       AND A TOTAL OF          5 INNER ITERATIONS.
    ------------------------------------------------

 NO OUTPUT CONTROL FOR STRESS PERIOD   12   TIME STEP    4
 
 SOLVING FOR HEAD 
                                                   Max.-Head-Change                         Max.-Flux-Residual
  Residual-Control   Outer-Iter.   Inner-Iter.     Column Row Layer    Maximum-Head-Change  Column Row Layer    Maximum-Flux-Residual          L2-NORM 
          0                 1           2             4    7     1       0.5880320810E-02       4    7    1         0.3100237935E+00      0.6756532438E+00
          0                 2           2             4    7     1      -0.5719956080E-03       4    7    1        -0.3100242959E-01      0.6745155945E-01
          0                 3           1             4    7     1       0.3895077327E-04       4    7    1         0.2170170540E-02      0.4709345977E-02

    ------------------------------------------------
       NWT REQUIRED            3 OUTER ITERATIONS 
       AND A TOTAL OF          5 INNER ITERATIONS.
    ------------------------------------------------

 NO OUTPUT CONTROL FOR STRESS PERIOD   12   TIME STEP    5
 
 SOLVING FOR HEAD 
                                                   Max.-Head-Change                         Max.-Flux-Residual
  Residual-Control   Outer-Iter.   Inner-Iter.     Column Row Layer    Maximum-Head-Change  Column Row Layer    Maximum-Flux-Residual          L2-NORM 
          0                 1           2             4    7     1       0.5795493001E-02       4    7    1         0.3055404633E+00      0.6643725689E+00
          0                 2           2             4    7     1      -0.5637441562E-03       4    7    1        -0.3055409529E-01      0.6634035953E-01
          0                 3           1             4    7     1       0.3838888015E-04       4    7    1         0.2138787131E-02      0.4635196806E-02

    ------------------------------------------------
       NWT REQUIRED            3 OUTER ITERATIONS 
       AND A TOTAL OF          5 INNER ITERATIONS.
    ------------------------------------------------

 NO OUTPUT CONTROL FOR STRESS PERIOD   12   TIME STEP    6
 
 SOLVING FOR HEAD 
                                                   Max.-Head-Change                         Max.-Flux-Residual
  Residual-Control   Outer-Iter.   Inner-Iter.     Column Row Layer    Maximum-Head-Change  Column Row Layer    Maximum-Flux-Residual          L2-NORM 
          0                 1           2             4    7     1       0.5712002920E-02       4    7    1         0.3011274282E+00      0.6536756247E+00
          0                 2           2             4    7     1      -0.5556228295E-03       4    7    1        -0.3011279053E-01      0.6528304850E-01
          0                 3           1             4    7     1       0.3783584832E-04       4    7    1         0.2107895807E-02      0.4561775280E-02

    ------------------------------------------------
       NWT REQUIRED            3 OUTER ITERATIONS 
       AND A TOTAL OF          5 INNER ITERATIONS.
    ------------------------------------------------

 NO OUTPUT CONTROL FOR STRESS PERIOD   12   TIME STEP    7
 
 SOLVING FOR HEAD 
                                                   Max.-Head-Change                         Max.-Flux-Residual
  Residual-Control   Outer-Iter.   Inner-Iter.     Column Row Layer    Maximum-Head-Change  Column Row Layer    Maximum-Flux-Residual          L2-NORM 
          0                 1           2             4    7     1       0.5630111049E-02       4    7    1         0.2967985589E+00      0.6435077354E+00
          0                 2           2             4    7     1      -0.5476569652E-03       4    7    1        -0.2967990237E-01      0.6427750634E-01
          0                 3           1             4    7     1       0.3729340241E-04       4    7    1         0.2077593626E-02      0.4492873683E-02

    ------------------------------------------------
       NWT REQUIRED            3 OUTER ITERATIONS 
       AND A TOTAL OF          5 INNER ITERATIONS.
    ------------------------------------------------

 NO OUTPUT CONTROL FOR STRESS PERIOD   12   TIME STEP    8
 
 SOLVING FOR HEAD 
                                                   Max.-Head-Change                         Max.-Flux-Residual
  Residual-Control   Outer-Iter.   Inner-Iter.     Column Row Layer    Maximum-Head-Change  Column Row Layer    Maximum-Flux-Residual          L2-NORM 
          0                 1           2             4    7     1       0.5549514716E-02       4    7    1         0.2925377486E+00      0.6337983861E+00
          0                 2           2             4    7     1      -0.5398171216E-03       4    7    1        -0.2925382014E-01      0.6331566043E-01
          0                 3           1             4    7     1       0.3675953780E-04       4    7    1         0.2047767850E-02      0.4426258796E-02

    ------------------------------------------------
       NWT REQUIRED            3 OUTER ITERATIONS 
       AND A TOTAL OF          5 INNER ITERATIONS.
    ------------------------------------------------

 NO OUTPUT CONTROL FOR STRESS PERIOD   12   TIME STEP    9
 
 SOLVING FOR HEAD 
                                                   Max.-Head-Change                         Max.-Flux-Residual
  Residual-Control   Outer-Iter.   Inner-Iter.     Column Row Layer    Maximum-Head-Change  Column Row Layer    Maximum-Flux-Residual          L2-NORM 
          0                 1           2             4    7     1       0.5470205113E-02       4    7    1         0.2883441104E+00      0.6245248535E+00
          0                 2           2             4    7     1      -0.5321024427E-03       4    7    1        -0.2883445514E-01      0.6239674680E-01
          0                 3           1             4    7     1       0.3623419745E-04       4    7    1         0.2018412313E-02      0.4362587962E-02

    ------------------------------------------------
       NWT REQUIRED            3 OUTER ITERATIONS 
       AND A TOTAL OF          5 INNER ITERATIONS.
    ------------------------------------------------

 NO OUTPUT CONTROL FOR STRESS PERIOD   12   TIME STEP   10
 
 SOLVING FOR HEAD 
                                                   Max.-Head-Change                         Max.-Flux-Residual
  Residual-Control   Outer-Iter.   Inner-Iter.     Column Row Layer    Maximum-Head-Change  Column Row Layer    Maximum-Flux-Residual          L2-NORM 
          0                 1           2             4    7     1       0.5392434615E-02       4    7    1         0.2842319945E+00      0.6156215266E+00
          0                 2           2             4    7     1      -0.5245374767E-03       4    7    1        -0.2842324238E-01      0.6151352259E-01
          0                 3           1             4    7     1       0.3571905157E-04       4    7    1         0.1989627424E-02      0.4301774029E-02

    ------------------------------------------------
       NWT REQUIRED            3 OUTER ITERATIONS 
       AND A TOTAL OF          5 INNER ITERATIONS.
    ------------------------------------------------

 NO OUTPUT CONTROL FOR STRESS PERIOD   12   TIME STEP   11
 
 SOLVING FOR HEAD 
                                                   Max.-Head-Change                         Max.-Flux-Residual
  Residual-Control   Outer-Iter.   Inner-Iter.     Column Row Layer    Maximum-Head-Change  Column Row Layer    Maximum-Flux-Residual          L2-NORM 
          0                 1           2             4    7     1       0.5315904123E-02       4    7    1         0.2801848724E+00      0.6070571419E+00
          0                 2           2             4    7     1      -0.5170931300E-03       4    7    1        -0.2801852906E-01      0.6066328575E-01
          0                 3           1             4    7     1       0.3521211920E-04       4    7    1         0.1961297478E-02      0.4242471691E-02

    ------------------------------------------------
       NWT REQUIRED            3 OUTER ITERATIONS 
       AND A TOTAL OF          5 INNER ITERATIONS.
    ------------------------------------------------

 NO OUTPUT CONTROL FOR STRESS PERIOD   12   TIME STEP   12
 
 SOLVING FOR HEAD 
                                                   Max.-Head-Change                         Max.-Flux-Residual
  Residual-Control   Outer-Iter.   Inner-Iter.     Column Row Layer    Maximum-Head-Change  Column Row Layer    Maximum-Flux-Residual          L2-NORM 
          0                 1           2             4    7     1       0.5240872705E-02       4    7    1         0.2762168504E+00      0.5988169207E+00
          0                 2           2             4    7     1      -0.5097946032E-03       4    7    1        -0.2762172578E-01      0.5984472267E-01
          0                 3           1             4    7     1       0.3471511692E-04       4    7    1         0.1933521261E-02      0.4185761713E-02

    ------------------------------------------------
       NWT REQUIRED            3 OUTER ITERATIONS 
       AND A TOTAL OF          5 INNER ITERATIONS.
    ------------------------------------------------

 NO OUTPUT CONTROL FOR STRESS PERIOD   12   TIME STEP   13
 
 SOLVING FOR HEAD 
                                                   Max.-Head-Change                         Max.-Flux-Residual
  Residual-Control   Outer-Iter.   Inner-Iter.     Column Row Layer    Maximum-Head-Change  Column Row Layer    Maximum-Flux-Residual          L2-NORM 
          0                 1           2             4    7     1       0.5167033893E-02       4    7    1         0.2723117464E+00      0.5908532668E+00
          0                 2           2             4    7     1      -0.5026120837E-03       4    7    1        -0.2723121428E-01      0.5905300357E-01
          0                 3           1             4    7     1       0.3422601386E-04       4    7    1         0.1906185441E-02      0.4130661279E-02

    ------------------------------------------------
       NWT REQUIRED            3 OUTER ITERATIONS 
       AND A TOTAL OF          5 INNER ITERATIONS.
    ------------------------------------------------

 NO OUTPUT CONTROL FOR STRESS PERIOD   12   TIME STEP   14
 
 SOLVING FOR HEAD 
                                                   Max.-Head-Change                         Max.-Flux-Residual
  Residual-Control   Outer-Iter.   Inner-Iter.     Column Row Layer    Maximum-Head-Change  Column Row Layer    Maximum-Flux-Residual          L2-NORM 
          0                 1           2             4    7     1       0.5094374794E-02       4    7    1         0.2684684773E+00      0.5831526026E+00
          0                 2           2             4    7     1      -0.4955443195E-03       4    7    1        -0.2684688633E-01      0.5828694604E-01
          0                 3           1             4    7     1       0.3374472574E-04       4    7    1         0.1879282486E-02      0.4077217990E-02

    ------------------------------------------------
       NWT REQUIRED            3 OUTER ITERATIONS 
       AND A TOTAL OF          5 INNER ITERATIONS.
    ------------------------------------------------

 NO OUTPUT CONTROL FOR STRESS PERIOD   12   TIME STEP   15
 
 SOLVING FOR HEAD 
                                                   Max.-Head-Change                         Max.-Flux-Residual
  Residual-Control   Outer-Iter.   Inner-Iter.     Column Row Layer    Maximum-Head-Change  Column Row Layer    Maximum-Flux-Residual          L2-NORM 
          0                 1           2             4    7     1       0.5023156915E-02       4    7    1         0.2647011828E+00      0.5756971777E+00
          0                 2           2             4    7     1      -0.4886167467E-03       4    7    1        -0.2647015586E-01      0.5754500173E-01
          0                 3           1             4    7     1       0.3327298361E-04       4    7    1         0.1852911351E-02      0.4026966376E-02

    ------------------------------------------------
       NWT REQUIRED            3 OUTER ITERATIONS 
       AND A TOTAL OF          5 INNER ITERATIONS.
    ------------------------------------------------

 NO OUTPUT CONTROL FOR STRESS PERIOD   12   TIME STEP   16
 
 SOLVING FOR HEAD 
                                                   Max.-Head-Change                         Max.-Flux-Residual
  Residual-Control   Outer-Iter.   Inner-Iter.     Column Row Layer    Maximum-Head-Change  Column Row Layer    Maximum-Flux-Residual          L2-NORM 
          0                 1           2             4    7     1       0.4953341837E-02       4    7    1         0.2610086140E+00      0.5684618413E+00
          0                 2           2             4    7     1      -0.4818256288E-03       4    7    1        -0.2610089800E-01      0.5682440039E-01
          0                 3           1             4    7     1       0.3281053421E-04       4    7    1         0.1827063308E-02      0.3976187222E-02

    ------------------------------------------------
       NWT REQUIRED            3 OUTER ITERATIONS 
       AND A TOTAL OF          5 INNER ITERATIONS.
    ------------------------------------------------

 NO OUTPUT CONTROL FOR STRESS PERIOD   12   TIME STEP   17
 
 SOLVING FOR HEAD 
                                                   Max.-Head-Change                         Max.-Flux-Residual
  Residual-Control   Outer-Iter.   Inner-Iter.     Column Row Layer    Maximum-Head-Change  Column Row Layer    Maximum-Flux-Residual          L2-NORM 
          0                 1           2             4    7     1       0.4884629403E-02       4    7    1         0.2573739706E+00      0.5614318907E+00
          0                 2           2             4    7     1      -0.4751417689E-03       4    7    1        -0.2573743273E-01      0.5612418048E-01
          0                 3           1             4    7     1       0.3235538808E-04       4    7    1         0.1801620730E-02      0.3927014514E-02

    ------------------------------------------------
       NWT REQUIRED            3 OUTER ITERATIONS 
       AND A TOTAL OF          5 INNER ITERATIONS.
    ------------------------------------------------

 NO OUTPUT CONTROL FOR STRESS PERIOD   12   TIME STEP   18
 
 SOLVING FOR HEAD 
                                                   Max.-Head-Change                         Max.-Flux-Residual
  Residual-Control   Outer-Iter.   Inner-Iter.     Column Row Layer    Maximum-Head-Change  Column Row Layer    Maximum-Flux-Residual          L2-NORM 
          0                 1           2             4    7     1       0.4817007375E-02       4    7    1         0.2537964980E+00      0.5545990638E+00
          0                 2           2             4    7     1      -0.4685639750E-03       4    7    1        -0.2537968448E-01      0.5544313886E-01
          0                 3           1             4    7     1       0.3190746498E-04       4    7    1         0.1776578365E-02      0.3879530297E-02

    ------------------------------------------------
       NWT REQUIRED            3 OUTER ITERATIONS 
       AND A TOTAL OF          5 INNER ITERATIONS.
    ------------------------------------------------

 NO OUTPUT CONTROL FOR STRESS PERIOD   12   TIME STEP   19
 
 SOLVING FOR HEAD 
                                                   Max.-Head-Change                         Max.-Flux-Residual
  Residual-Control   Outer-Iter.   Inner-Iter.     Column Row Layer    Maximum-Head-Change  Column Row Layer    Maximum-Flux-Residual          L2-NORM 
          0                 1           2             4    7     1       0.4750729832E-02       4    7    1         0.2502903700E+00      0.5479441916E+00
          0                 2           2             4    7     1      -0.4621169641E-03       4    7    1        -0.2502907079E-01      0.5477979618E-01
          0                 3           1             4    7     1       0.3146844766E-04       4    7    1         0.1752035401E-02      0.3833234873E-02

    ------------------------------------------------
       NWT REQUIRED            3 OUTER ITERATIONS 
       AND A TOTAL OF          5 INNER ITERATIONS.
    ------------------------------------------------

 NO OUTPUT CONTROL FOR STRESS PERIOD   12   TIME STEP   20
 
 SOLVING FOR HEAD 
                                                   Max.-Head-Change                         Max.-Flux-Residual
  Residual-Control   Outer-Iter.   Inner-Iter.     Column Row Layer    Maximum-Head-Change  Column Row Layer    Maximum-Flux-Residual          L2-NORM 
          0                 1           2             4    7     1       0.4685491243E-02       4    7    1         0.2468391434E+00      0.5414575409E+00
          0                 2           2             4    7     1      -0.4557710150E-03       4    7    1        -0.2468394723E-01      0.5413269323E-01
          0                 3           1             4    7     1       0.3103631208E-04       4    7    1         0.1727876750E-02      0.3788096238E-02

    ------------------------------------------------
       NWT REQUIRED            3 OUTER ITERATIONS 
       AND A TOTAL OF          5 INNER ITERATIONS.
    ------------------------------------------------

 NO OUTPUT CONTROL FOR STRESS PERIOD   12   TIME STEP   21
 
 SOLVING FOR HEAD 
                                                   Max.-Head-Change                         Max.-Flux-Residual
  Residual-Control   Outer-Iter.   Inner-Iter.     Column Row Layer    Maximum-Head-Change  Column Row Layer    Maximum-Flux-Residual          L2-NORM 
          0                 1           2             4    7     1       0.4621556873E-02       4    7    1         0.2434565940E+00      0.5351363491E+00
          0                 2           2             4    7     1      -0.4495519307E-03       4    7    1        -0.2434569140E-01      0.5350217723E-01
          0                 3           1             4    7     1       0.3061281485E-04       4    7    1         0.1704198805E-02      0.3744023220E-02

    ------------------------------------------------
       NWT REQUIRED            3 OUTER ITERATIONS 
       AND A TOTAL OF          5 INNER ITERATIONS.
    ------------------------------------------------

 NO OUTPUT CONTROL FOR STRESS PERIOD   12   TIME STEP   22
 
 SOLVING FOR HEAD 
                                                   Max.-Head-Change                         Max.-Flux-Residual
  Residual-Control   Outer-Iter.   Inner-Iter.     Column Row Layer    Maximum-Head-Change  Column Row Layer    Maximum-Flux-Residual          L2-NORM 
          0                 1           2             4    7     1       0.4558883790E-02       4    7    1         0.2401416669E+00      0.5289652436E+00
          0                 2           2             4    7     1      -0.4434555369E-03       4    7    1        -0.2401419786E-01      0.5288629944E-01
          0                 3           1             4    7     1       0.3019767383E-04       4    7    1         0.1680994290E-02      0.3701112994E-02

    ------------------------------------------------
       NWT REQUIRED            3 OUTER ITERATIONS 
       AND A TOTAL OF          5 INNER ITERATIONS.
    ------------------------------------------------

 NO OUTPUT CONTROL FOR STRESS PERIOD   12   TIME STEP   23
 
 SOLVING FOR HEAD 
                                                   Max.-Head-Change                         Max.-Flux-Residual
  Residual-Control   Outer-Iter.   Inner-Iter.     Column Row Layer    Maximum-Head-Change  Column Row Layer    Maximum-Flux-Residual          L2-NORM 
          0                 1           2             4    7     1       0.4497185177E-02       4    7    1         0.2368773270E+00      0.5229409554E+00
          0                 2           2             4    7     1      -0.4374539320E-03       4    7    1        -0.2368776305E-01      0.5228515525E-01
          0                 3           1             4    7     1       0.2978898714E-04       4    7    1         0.1658143842E-02      0.3659218583E-02

    ------------------------------------------------
       NWT REQUIRED            3 OUTER ITERATIONS 
       AND A TOTAL OF          5 INNER ITERATIONS.
    ------------------------------------------------

 NO OUTPUT CONTROL FOR STRESS PERIOD   12   TIME STEP   24
 
 SOLVING FOR HEAD 
                                                   Max.-Head-Change                         Max.-Flux-Residual
  Residual-Control   Outer-Iter.   Inner-Iter.     Column Row Layer    Maximum-Head-Change  Column Row Layer    Maximum-Flux-Residual          L2-NORM 
          0                 1           2             4    7     1       0.4436439869E-02       4    7    1         0.2336635123E+00      0.5170437263E+00
          0                 2           2             4    7     1      -0.4315450587E-03       4    7    1        -0.2336638080E-01      0.5169646336E-01
          0                 3           1             4    7     1       0.2938661465E-04       4    7    1         0.1635647090E-02      0.3618048174E-02

    ------------------------------------------------
       NWT REQUIRED            3 OUTER ITERATIONS 
       AND A TOTAL OF          5 INNER ITERATIONS.
    ------------------------------------------------

 NO OUTPUT CONTROL FOR STRESS PERIOD   12   TIME STEP   25
 
 SOLVING FOR HEAD 
                                                   Max.-Head-Change                         Max.-Flux-Residual
  Residual-Control   Outer-Iter.   Inner-Iter.     Column Row Layer    Maximum-Head-Change  Column Row Layer    Maximum-Flux-Residual          L2-NORM 
          0                 1           2             4    7     1       0.4376906376E-02       4    7    1         0.2305139344E+00      0.5112875486E+00
          0                 2           2             4    7     1      -0.4257540613E-03       4    7    1        -0.2305142222E-01      0.5112163143E-01
          0                 3           1             4    7     1       0.2899226917E-04       4    7    1         0.1613599979E-02      0.3577860006E-02

    ------------------------------------------------
       NWT REQUIRED            3 OUTER ITERATIONS 
       AND A TOTAL OF          5 INNER ITERATIONS.
    ------------------------------------------------

 NO OUTPUT CONTROL FOR STRESS PERIOD   12   TIME STEP   26
 
 SOLVING FOR HEAD 
                                                   Max.-Head-Change                         Max.-Flux-Residual
  Residual-Control   Outer-Iter.   Inner-Iter.     Column Row Layer    Maximum-Head-Change  Column Row Layer    Maximum-Flux-Residual          L2-NORM 
          0                 1           2             4    7     1       0.4318557340E-02       4    7    1         0.2274271877E+00      0.5056561767E+00
          0                 2           2             4    7     1      -0.4200782802E-03       4    7    1        -0.2274274679E-01      0.5055935710E-01
          0                 3           1             4    7     1       0.2860576988E-04       4    7    1         0.1591992711E-02      0.3538541352E-02

    ------------------------------------------------
       NWT REQUIRED            3 OUTER ITERATIONS 
       AND A TOTAL OF          5 INNER ITERATIONS.
    ------------------------------------------------

 NO OUTPUT CONTROL FOR STRESS PERIOD   12   TIME STEP   27
 
 SOLVING FOR HEAD 
                                                   Max.-Head-Change                         Max.-Flux-Residual
  Residual-Control   Outer-Iter.   Inner-Iter.     Column Row Layer    Maximum-Head-Change  Column Row Layer    Maximum-Flux-Residual          L2-NORM 
          0                 1           2             4    7     1       0.4261093454E-02       4    7    1         0.2243870443E+00      0.5001446534E+00
          0                 2           2             4    7     1      -0.4144886000E-03       4    7    1        -0.2243873173E-01      0.5000879582E-01
          0                 3           1             4    7     1       0.2822513323E-04       4    7    1         0.1570711629E-02      0.3500086871E-02

    ------------------------------------------------
       NWT REQUIRED            3 OUTER ITERATIONS 
       AND A TOTAL OF          5 INNER ITERATIONS.
    ------------------------------------------------

 NO OUTPUT CONTROL FOR STRESS PERIOD   12   TIME STEP   28
 
 SOLVING FOR HEAD 
                                                   Max.-Head-Change                         Max.-Flux-Residual
  Residual-Control   Outer-Iter.   Inner-Iter.     Column Row Layer    Maximum-Head-Change  Column Row Layer    Maximum-Flux-Residual          L2-NORM 
          0                 1           2             4    7     1       0.4204772781E-02       4    7    1         0.2214076044E+00      0.4947538205E+00
          0                 2           2             4    7     1      -0.4090101237E-03       4    7    1        -0.2214078702E-01      0.4947031577E-01
          0                 3           1             4    7     1       0.2785206941E-04       4    7    1         0.1549855509E-02      0.3462400010E-02

    ------------------------------------------------
       NWT REQUIRED            3 OUTER ITERATIONS 
       AND A TOTAL OF          5 INNER ITERATIONS.
    ------------------------------------------------

 NO OUTPUT CONTROL FOR STRESS PERIOD   12   TIME STEP   29
 
 SOLVING FOR HEAD 
                                                   Max.-Head-Change                         Max.-Flux-Residual
  Residual-Control   Outer-Iter.   Inner-Iter.     Column Row Layer    Maximum-Head-Change  Column Row Layer    Maximum-Flux-Residual          L2-NORM 
          0                 1           2             4    7     1       0.4149293023E-02       4    7    1         0.2184726290E+00      0.4908192203E+00
          0                 2           2             4    7     1      -0.4038322642E-03       4    7    1        -0.2186966178E-01      0.4908021814E-01
          0                 3           1             4    7     1       0.2749947547E-04       4    7    1         0.1530876669E-02      0.3434584669E-02

    ------------------------------------------------
       NWT REQUIRED            3 OUTER ITERATIONS 
       AND A TOTAL OF          5 INNER ITERATIONS.
    ------------------------------------------------

 NO OUTPUT CONTROL FOR STRESS PERIOD   12   TIME STEP   30



 STREAM LISTING     PERIOD     12   STEP       30

 LAYER ROW COL. STREAM  RCH.  FLOW INTO     FLOW TO   FLOW OUT OF   OVRLND.     DIRECT     STREAM       STREAM     STREAM     STREAM   STREAMBED  STREAMBED
                SEG.NO.  NO.  STRM. RCH.    AQUIFER    STRM. RCH.    RUNOFF     PRECIP       ET          HEAD       DEPTH      WIDTH   CONDCTNC.   GRADIENT

   1    1    1     1     1    1.9081E+01  2.1479E-01   1.8866E+01  0.000E+00  0.000E+00  0.000E+00  1.09413E+03  1.083E+00  1.169E+01  5.260E-02  1.361E+00
   1    2    2     1     2    1.8866E+01  3.3136E-01   1.8535E+01  0.000E+00  0.000E+00  0.000E+00  1.08914E+03  1.079E+00  1.161E+01  8.124E-02  1.360E+00
   1    3    3     1     3    1.8535E+01  2.8134E-01   1.8253E+01  0.000E+00  0.000E+00  0.000E+00  1.08349E+03  1.074E+00  1.151E+01  6.906E-02  1.358E+00
   1    3    4     1     4    1.8253E+01  2.5804E-01   1.7995E+01  0.000E+00  0.000E+00  0.000E+00  1.07848E+03  1.069E+00  1.143E+01  6.342E-02  1.356E+00
   1    4    5     2     1    1.5995E+01  3.0564E-01   1.5690E+01  0.000E+00  0.000E+00  0.000E+00  1.07285E+03  9.184E-01  1.200E+01  7.800E-02  1.306E+00
   1    5    6     2     2    1.5690E+01  2.3454E-01   1.5455E+01  0.000E+00  0.000E+00  0.000E+00  1.06742E+03  9.090E-01  1.200E+01  6.000E-02  1.303E+00
   1    6    6     2     3    1.5455E+01  2.3405E-01   1.5221E+01  0.000E+00  0.000E+00  0.000E+00  1.06269E+03  9.008E-01  1.200E+01  6.000E-02  1.300E+00
   1    7    6     2     4    1.5221E+01  2.3355E-01   1.4987E+01  0.000E+00  0.000E+00  0.000E+00  1.05797E+03  8.925E-01  1.200E+01  6.000E-02  1.297E+00
   1    8    6     2     5    1.4987E+01  2.3305E-01   1.4754E+01  0.000E+00  0.000E+00  0.000E+00  1.05324E+03  8.842E-01  1.200E+01  6.000E-02  1.295E+00
   1    3    5     3     1    2.0000E+00  2.8252E-01   1.7175E+00  0.000E+00  0.000E+00  0.000E+00  1.07555E+03  1.909E+00  9.636E+00  7.227E-02  1.955E+00
   1    3    6     3     2    1.7175E+00  2.4905E-01   1.4684E+00  0.000E+00  0.000E+00  0.000E+00  1.07264E+03  1.727E+00  8.909E+00  6.682E-02  1.864E+00
   1    3    7     3     3    1.4684E+00  1.9718E-01   1.2712E+00  0.000E+00  0.000E+00  0.000E+00  1.06987E+03  1.555E+00  8.218E+00  5.547E-02  1.777E+00
   1    4    8     3     4    1.2712E+00  2.2567E-01   1.0456E+00  0.000E+00  0.000E+00  0.000E+00  1.06682E+03  1.364E+00  7.455E+00  6.709E-02  1.682E+00
   1    5    8     3     5    1.0456E+00  1.5790E-01   8.8768E-01  0.000E+00  0.000E+00  0.000E+00  1.06362E+03  1.164E+00  6.655E+00  4.991E-02  1.582E+00
   1    6    8     3     6    8.8768E-01  5.5980E-02   8.3170E-01  0.000E+00  0.000E+00  0.000E+00  1.06158E+03  1.036E+00  6.145E+00  1.844E-02  1.518E+00
   1    5   10     4     1    1.0000E+01  9.0919E-02   9.9091E+00  0.000E+00  0.000E+00  0.000E+00  1.07836E+03  6.368E-01  1.000E+01  2.500E-02  1.212E+00
   1    5    9     4     2    9.9091E+00  1.8158E-01   9.7275E+00  0.000E+00  0.000E+00  0.000E+00  1.07154E+03  6.315E-01  1.000E+01  5.000E-02  1.211E+00
   1    6    8     4     3    9.7275E+00  1.2689E-01   9.6006E+00  0.000E+00  0.000E+00  0.000E+00  1.06381E+03  6.256E-01  1.000E+01  3.500E-02  1.209E+00
   1    6    8     5     1    1.0432E+01  2.2686E-01   1.0205E+01  0.000E+00  0.000E+00  0.000E+00  1.05868E+03  6.790E-01  1.542E+01  6.166E-02  1.226E+00
   1    7    7     5     2    1.0205E+01  2.7894E-01   9.9265E+00  0.000E+00  0.000E+00  0.000E+00  1.05417E+03  6.732E-01  1.519E+01  7.594E-02  1.224E+00
   1    8    7     5     3    9.9265E+00  1.9221E-01   9.7343E+00  0.000E+00  0.000E+00  0.000E+00  1.04992E+03  6.676E-01  1.497E+01  5.241E-02  1.223E+00
   1    8    6     5     4    9.7343E+00  1.3577E-01   9.5985E+00  0.000E+00  0.000E+00  0.000E+00  1.04691E+03  6.637E-01  1.482E+01  3.706E-02  1.221E+00
   1    9    6     6     1    2.4353E+01  2.5190E-01   2.4101E+01  0.000E+00  0.000E+00  0.000E+00  1.04393E+03  1.198E+00  1.200E+01  6.000E-02  1.399E+00
   1   10    7     6     2    2.4101E+01  2.5145E-01   2.3850E+01  0.000E+00  0.000E+00  0.000E+00  1.03937E+03  1.191E+00  1.200E+01  6.000E-02  1.397E+00
   1   11    7     6     3    2.3850E+01  2.5100E-01   2.3599E+01  0.000E+00  0.000E+00  0.000E+00  1.03482E+03  1.183E+00  1.200E+01  6.000E-02  1.394E+00
   1   12    7     6     4    2.3599E+01  2.5054E-01   2.3348E+01  0.000E+00  0.000E+00  0.000E+00  1.03027E+03  1.176E+00  1.200E+01  6.000E-02  1.392E+00
   1   13    7     6     5    2.3348E+01 -1.2786E-02   2.3361E+01  0.000E+00  0.000E+00  0.000E+00  1.02708E+03  1.172E+00  1.200E+01  2.400E-01 -1.776E-02
   1   14    9     7     1    1.5000E+02  1.3359E+00   1.4866E+02  0.000E+00  0.000E+00  0.000E+00  1.03987E+03  2.288E+00  5.529E+01  5.593E-01  7.962E-01
   1   13    8     7     2    1.4866E+02  1.8212E+00   1.4684E+02  0.000E+00  0.000E+00  0.000E+00  1.03478E+03  2.279E+00  5.526E+01  6.148E-01  9.874E-01
   1   13    7     7     3    1.4684E+02  1.4271E+00   1.4542E+02  0.000E+00  0.000E+00  0.000E+00  1.02969E+03  2.271E+00  5.522E+01  5.585E-01  8.518E-01
   1   13    6     8     1    1.6878E+02  8.6485E-01   1.6791E+02  0.000E+00  0.000E+00  0.000E+00  1.02482E+03  2.941E+00  4.265E+01  4.346E-01  6.633E-01
   1   13    5     8     2    1.6791E+02  1.1804E-01   1.6779E+02  0.000E+00  0.000E+00  0.000E+00  1.01856E+03  2.938E+00  4.260E+01  4.341E-01  9.063E-02
   1   13    4     8     3    1.6779E+02 -2.6515E+00   1.7045E+02  0.000E+00  0.000E+00  0.000E+00  1.01232E+03  2.946E+00  4.272E+01  4.354E+00 -2.030E-01
   1   13    3     8     4    1.7045E+02 -3.7543E+00   1.7420E+02  0.000E+00  0.000E+00  0.000E+00  1.00609E+03  2.967E+00  4.303E+01  4.384E+00 -2.854E-01
   1   13    2     8     5    1.7420E+02 -2.6117E+00   1.7681E+02  0.000E+00  0.000E+00  0.000E+00  9.99863E+02  2.988E+00  4.332E+01  4.415E+00 -1.972E-01
   1   13    1     8     6    1.7681E+02 -1.9989E+00   1.7881E+02  0.000E+00  0.000E+00  0.000E+00  9.94877E+02  3.002E+00  4.353E+01  2.662E+00 -2.503E-01
   1    8    6     9     1    0.0000E+00  0.0000E+00   0.0000E+00  0.000E+00  0.000E+00  0.000E+00  1.07875E+03  0.000E+00  4.000E+00  0.000E+00  1.000E+00
   1    8    5     9     2    0.0000E+00  0.0000E+00   0.0000E+00  0.000E+00  0.000E+00  0.000E+00  1.07825E+03  0.000E+00  4.000E+00  0.000E+00  1.000E+00





UNSATURATED ZONE PACKAGE VOLUMETRIC BUDGET FOR  TIME STEP    30 STRESS PERIOD   12
  ------------------------------------------------------------------------------



     CUMULATIVE VOLUMES      L**3       RATES FOR THIS TIME STEP      L**3/T
     ------------------                 ------------------------

           IN:                                      IN:
           ---                                      ---
        INFILTRATION =   432666980.2418          INFILTRATION =           0.8475

          OUT:                                     OUT:
          ----                                     ----
              UZF ET =   428055478.4633                UZF ET =           0.7500
        UZF RECHARGE =       73224.0000          UZF RECHARGE =       0.0000E+00

            IN - OUT =     4538277.7784              IN - OUT =       9.7500E-02

          STORAGE:                                 STORAGE:
          --------                                 --------
      STORAGE CHANGE =     4538480.6931        STORAGE CHANGE =       9.7500E-02

 PERCENT DISCREPANCY IS DIFFERENCE BETWEEN IN-OUT MINUS CHANGE IN STORAGE
 DIVIDED BY THE AVERAGE OF IN AND OUT TIMES 100

 PERCENT DISCREPANCY =          -0.00     PERCENT DISCREPANCY =           0.00






1
  VOLUMETRIC BUDGET FOR AGRICULTURAL FIELDS AT  END OF TIME STEP   30, STRESS PERIOD  12
  ------------------------------------------------------------------------------

     CUMULATIVE VOLUMES      L**3       RATES FOR THIS TIME STEP      L**3/T
     ------------------                 ------------------------

           IN:                                      IN:
           ---                                      ---
               AG WELLS  =    49128108.0000                 AG WELLS  =           0.0000
      DIVERSION SEGMENTS =   358973504.0000        DIVERSION SEGMENTS =           0.0000
       IRRIGATION PONDS  =           0.0000         IRRIGATION PONDS  =           0.0000
           GW IRRIGATION =           0.0000             GW IRRIGATION =           0.0000
           SW IRRIGATION =           0.0000             SW IRRIGATION =           0.0000
        SYSTEM LOSSES GW =           0.0000          SYSTEM LOSSES GW =           0.0000
        SYSTEM LOSSES SW =           0.0000          SYSTEM LOSSES SW =           0.0000

                TOTAL IN =   408101600.0000                  TOTAL IN =           0.0000

          OUT:                                     OUT:
          ----                                     ----
               AG WELLS  =           0.0000                 AG WELLS  =           0.0000
      DIVERSION SEGMENTS =           0.0000        DIVERSION SEGMENTS =           0.0000
       IRRIGATION PONDS  =           0.0000         IRRIGATION PONDS  =           0.0000
           GW IRRIGATION =    49128108.0000             GW IRRIGATION =           0.0000
           SW IRRIGATION =   358980608.0000             SW IRRIGATION =           0.0000
        SYSTEM LOSSES GW =           0.0000          SYSTEM LOSSES GW =           0.0000
        SYSTEM LOSSES SW =           0.0000          SYSTEM LOSSES SW =           0.0000

               TOTAL OUT =   408108704.0000                 TOTAL OUT =           0.0000

                IN - OUT =       -7104.0000                  IN - OUT =           0.0000

     PERCENT DISCREPANCY =          -0.00         PERCENT DISCREPANCY =           0.00



1
  VOLUMETRIC BUDGET FOR ENTIRE MODEL AT END OF TIME STEP   30, STRESS PERIOD  12
  ------------------------------------------------------------------------------

     CUMULATIVE VOLUMES      L**3       RATES FOR THIS TIME STEP      L**3/T
     ------------------                 ------------------------

           IN:                                      IN:
           ---                                      ---
             STORAGE     =    82740832.0000               STORAGE     =           1.3937
       CONSTANT HEAD     =           0.0000         CONSTANT HEAD     =           0.0000
     HEAD DEP BOUNDS     =     8291079.5000       HEAD DEP BOUNDS     =           0.2858
      STREAM LEAKAGE     =   349251808.0000        STREAM LEAKAGE     =          11.2998
        UZF RECHARGE     =       73223.9531          UZF RECHARGE     =           0.0000
               GW ET     =           0.0000                 GW ET     =           0.0000
     SURFACE LEAKAGE     =           0.0000       SURFACE LEAKAGE     =           0.0000
           AG WELLS      =           0.0000             AG WELLS      =           0.0000

                TOTAL IN =   440356928.0000                  TOTAL IN =          12.9792

          OUT:                                     OUT:
          ----                                     ----
             STORAGE     =    67170064.0000               STORAGE     =           1.6603
       CONSTANT HEAD     =           0.0000         CONSTANT HEAD     =           0.0000
     HEAD DEP BOUNDS     =     8439817.0000       HEAD DEP BOUNDS     =           0.2899
      STREAM LEAKAGE     =   314082272.0000        STREAM LEAKAGE     =          11.0291
        UZF RECHARGE     =           0.0000          UZF RECHARGE     =           0.0000
               GW ET     =     1538617.0000                 GW ET     =           0.0000
     SURFACE LEAKAGE     =           0.0000       SURFACE LEAKAGE     =           0.0000
           AG WELLS      =    49128108.0000             AG WELLS      =           0.0000

               TOTAL OUT =   440358880.0000                 TOTAL OUT =          12.9793

                IN - OUT =       -1952.0000                  IN - OUT =      -7.1526E-05

     PERCENT DISCREPANCY =          -0.00         PERCENT DISCREPANCY =          -0.00






         TIME SUMMARY AT END OF TIME STEP   30 IN STRESS PERIOD   12
                    SECONDS     MINUTES      HOURS       DAYS        YEARS
                    -----------------------------------------------------------
   TIME STEP LENGTH  87667.      1461.1      24.352      1.0147     2.77799E-03
 STRESS PERIOD TIME 2.63000E+06  43833.      730.56      30.440     8.33397E-02
         TOTAL TIME 2.90163E+07 4.83606E+05  8060.1      335.84     0.91947    
1
1
                            STRESS PERIOD NO.   13, LENGTH =   2630000.    
                            -----------------------------------------------

                              NUMBER OF TIME STEPS =    30

                               MULTIPLIER FOR DELT =     1.000

                            INITIAL TIME STEP SIZE =   87666.66    

 REUSING NON-PARAMETER GHB CELLS FROM LAST STRESS PERIOD

      2 GHB CELLS

 REUSING STREAM SEGMENT DATA FROM LAST STRESS PERIOD



            AREAL INFILTRATION RATE
 READING ON UNIT   19 WITH FORMAT: (FREE)              

            1           2           3           4           5           6           7           8           9          10
 ........................................................................................................................
   1   1.0000E-10  2.0000E-10   0.000       0.000       0.000       0.000       0.000       0.000       0.000       0.000    
   2   2.0000E-10  1.0000E-10  2.0000E-10   0.000       0.000      8.0000E-10  8.0000E-10  5.0000E-10   0.000       0.000    
   3    0.000      5.0000E-10  1.0000E-10  1.0000E-10  8.0000E-10  8.0000E-10  5.0000E-10  5.0000E-10   0.000       0.000    
   4   8.0000E-10  5.0000E-10  1.0000E-10  1.0000E-10  1.0000E-10  1.0000E-10  1.0000E-10  1.0000E-10  2.0000E-10   0.000    
   5   8.0000E-10  5.0000E-10  1.0000E-10  1.0000E-10  1.0000E-10  1.0000E-10  1.0000E-10  1.0000E-10  1.0000E-10  1.0000E-10
   6   8.0000E-10  5.0000E-10  5.0000E-10  2.0000E-10  2.0000E-10  1.0000E-10  1.0000E-10  1.0000E-10  1.0000E-10  5.0000E-10
   7   8.0000E-10  5.0000E-10  5.0000E-10  2.0000E-10  2.0000E-10  1.0000E-10  1.0000E-10  2.0000E-10  2.0000E-10   0.000    
   8    0.000      5.0000E-10  5.0000E-10  2.0000E-10  2.0000E-10  1.0000E-10  1.0000E-10  2.0000E-10  5.0000E-10   0.000    
   9    0.000      5.0000E-10  5.0000E-10  2.0000E-10  2.0000E-10  1.0000E-10  1.0000E-10  2.0000E-10  5.0000E-10   0.000    
  10    0.000      5.0000E-10  5.0000E-10  2.0000E-10  2.0000E-10  1.0000E-10  1.0000E-10  2.0000E-10  5.0000E-10  8.0000E-10
  11    0.000      1.0000E-10  1.0000E-10  1.0000E-10  1.0000E-10  1.0000E-10  1.0000E-10  2.0000E-10  5.0000E-10   0.000    
  12   1.0000E-10  1.0000E-10  1.0000E-10  1.0000E-10  1.0000E-10  1.0000E-10  1.0000E-10  1.0000E-10  2.0000E-10   0.000    
  13   1.0000E-10  1.0000E-10  2.0000E-10  2.0000E-10  2.0000E-10  2.0000E-10  2.0000E-10  1.0000E-10  1.0000E-10   0.000    
  14    0.000      2.0000E-10  5.0000E-10  5.0000E-10  5.0000E-10  5.0000E-10  5.0000E-10  2.0000E-10  1.0000E-10   0.000    
  15    0.000       0.000      8.0000E-10  8.0000E-10  8.0000E-10  8.0000E-10   0.000       0.000       0.000       0.000    

                  ET RATE =  5.000000E-10

 USING ET EXTINCTION DEPTH FROM PREVIOUS STRESS PERIOD. CURRENT PERIOD IS:      13

 USING EXTINCTION WATER CONTENT FROM PREVIOUS STRESS PERIOD. CURRENT PERIOD IS:      13

 USING AIR ENTRY PRESSURE FROM PREVIOUS STRESS PERIOD. CURRENT PERIOD IS:      13

 USING ROOT PRESSURE HEAD FROM PREVIOUS STRESS PERIOD. CURRENT PERIOD IS:      13

 USING ROOT ACTIVITY FROM PREVIOUS STRESS PERIOD. CURRENT PERIOD IS:      13

 PROCESSING AG STRESS PERIOD DATA

 READING AG STRESS PERIOD DATA

 READING IRRIGATION SEGMENT

 READING IRRIGATION WELL

 READING SUPPLEMENTAL WELL

 NO IRRPOND OR REUSING IRRPOND DATA FROM LAST STRESS PERIOD

 END PROCESSING AG STRESS PERIOD DATA OPTIONS
 
 SOLVING FOR HEAD 
                                                   Max.-Head-Change                         Max.-Flux-Residual
  Residual-Control   Outer-Iter.   Inner-Iter.     Column Row Layer    Maximum-Head-Change  Column Row Layer    Maximum-Flux-Residual          L2-NORM 
          0                 1           2             4    7     1       0.4092915174E-02       4    7    1         0.2155843695E+00      0.4979888348E+00
          0                 2           2             4    7     1      -0.3981295073E-03       4    7    1        -0.2155846901E-01      0.4973530985E-01
          0                 3           1             4    7     1       0.2711113889E-04       4    7    1         0.1509093175E-02      0.3476058129E-02

    ------------------------------------------------
       NWT REQUIRED            3 OUTER ITERATIONS 
       AND A TOTAL OF          5 INNER ITERATIONS.
    ------------------------------------------------

 NO OUTPUT CONTROL FOR STRESS PERIOD   13   TIME STEP    1
 
 SOLVING FOR HEAD 
                                                   Max.-Head-Change                         Max.-Flux-Residual
  Residual-Control   Outer-Iter.   Inner-Iter.     Column Row Layer    Maximum-Head-Change  Column Row Layer    Maximum-Flux-Residual          L2-NORM 
          0                 1           2             4    7     1       0.4037689306E-02       4    7    1         0.2126580911E+00      0.4913417729E+00
          0                 2           2             4    7     1      -0.3927575212E-03       4    7    1        -0.2126584016E-01      0.4907850928E-01
          0                 3           1             4    7     1       0.2674532674E-04       4    7    1         0.1488609159E-02      0.3430175014E-02

    ------------------------------------------------
       NWT REQUIRED            3 OUTER ITERATIONS 
       AND A TOTAL OF          5 INNER ITERATIONS.
    ------------------------------------------------

 NO OUTPUT CONTROL FOR STRESS PERIOD   13   TIME STEP    2
 
 SOLVING FOR HEAD 
                                                   Max.-Head-Change                         Max.-Flux-Residual
  Residual-Control   Outer-Iter.   Inner-Iter.     Column Row Layer    Maximum-Head-Change  Column Row Layer    Maximum-Flux-Residual          L2-NORM 
          0                 1           2             4    7     1       0.3983642174E-02       4    7    1         0.2097946913E+00      0.4849874819E+00
          0                 2           2             4    7     1      -0.3875001949E-03       4    7    1        -0.2097949920E-01      0.4844959793E-01
          0                 3           1             4    7     1       0.2638732220E-04       4    7    1         0.1468565285E-02      0.3386775538E-02

    ------------------------------------------------
       NWT REQUIRED            3 OUTER ITERATIONS 
       AND A TOTAL OF          5 INNER ITERATIONS.
    ------------------------------------------------

 NO OUTPUT CONTROL FOR STRESS PERIOD   13   TIME STEP    3
 
 SOLVING FOR HEAD 
                                                   Max.-Head-Change                         Max.-Flux-Residual
  Residual-Control   Outer-Iter.   Inner-Iter.     Column Row Layer    Maximum-Head-Change  Column Row Layer    Maximum-Flux-Residual          L2-NORM 
          0                 1           2             4    7     1       0.3930748394E-02       4    7    1         0.2069924075E+00      0.4789089749E+00
          0                 2           2             4    7     1      -0.3823550588E-03       4    7    1        -0.2069926988E-01      0.4784789531E-01
          0                 3           1             4    7     1       0.2603695795E-04       4    7    1         0.1448949236E-02      0.3345322863E-02

    ------------------------------------------------
       NWT REQUIRED            3 OUTER ITERATIONS 
       AND A TOTAL OF          5 INNER ITERATIONS.
    ------------------------------------------------

 NO OUTPUT CONTROL FOR STRESS PERIOD   13   TIME STEP    4
 
 SOLVING FOR HEAD 
                                                   Max.-Head-Change                         Max.-Flux-Residual
  Residual-Control   Outer-Iter.   Inner-Iter.     Column Row Layer    Maximum-Head-Change  Column Row Layer    Maximum-Flux-Residual          L2-NORM 
          0                 1           2             4    7     1       0.3878694623E-02       4    7    1         0.2042351133E+00      0.4730450034E+00
          0                 2           2             4    7     1      -0.3772916333E-03       4    7    1        -0.2042353957E-01      0.4726698700E-01
          0                 3           1             4    7     1       0.2569215742E-04       4    7    1         0.1429648112E-02      0.3305598926E-02

    ------------------------------------------------
       NWT REQUIRED            3 OUTER ITERATIONS 
       AND A TOTAL OF          5 INNER ITERATIONS.
    ------------------------------------------------

 NO OUTPUT CONTROL FOR STRESS PERIOD   13   TIME STEP    5
 
 SOLVING FOR HEAD 
                                                   Max.-Head-Change                         Max.-Flux-Residual
  Residual-Control   Outer-Iter.   Inner-Iter.     Column Row Layer    Maximum-Head-Change  Column Row Layer    Maximum-Flux-Residual          L2-NORM 
          0                 1           2             4    7     1       0.3827733161E-02       4    7    1         0.2015361827E+00      0.4673997963E+00
          0                 2           2             4    7     1      -0.3723344597E-03       4    7    1        -0.2015364565E-01      0.4670685730E-01
          0                 3           1             4    7     1       0.2535459246E-04       4    7    1         0.1410755543E-02      0.3266487948E-02

    ------------------------------------------------
       NWT REQUIRED            3 OUTER ITERATIONS 
       AND A TOTAL OF          5 INNER ITERATIONS.
    ------------------------------------------------

 NO OUTPUT CONTROL FOR STRESS PERIOD   13   TIME STEP    6
 
 SOLVING FOR HEAD 
                                                   Max.-Head-Change                         Max.-Flux-Residual
  Residual-Control   Outer-Iter.   Inner-Iter.     Column Row Layer    Maximum-Head-Change  Column Row Layer    Maximum-Flux-Residual          L2-NORM 
          0                 1           2             4    7     1       0.3777841206E-02       4    7    1         0.1988938871E+00      0.4619530624E+00
          0                 2           2             4    7     1      -0.3674813208E-03       4    7    1        -0.1988941524E-01      0.4616643195E-01
          0                 3           1             4    7     1       0.2502411185E-04       4    7    1         0.1392259424E-02      0.3228985322E-02

    ------------------------------------------------
       NWT REQUIRED            3 OUTER ITERATIONS 
       AND A TOTAL OF          5 INNER ITERATIONS.
    ------------------------------------------------

 NO OUTPUT CONTROL FOR STRESS PERIOD   13   TIME STEP    7
 
 SOLVING FOR HEAD 
                                                   Max.-Head-Change                         Max.-Flux-Residual
  Residual-Control   Outer-Iter.   Inner-Iter.     Column Row Layer    Maximum-Head-Change  Column Row Layer    Maximum-Flux-Residual          L2-NORM 
          0                 1           2             4    7     1       0.3728710711E-02       4    7    1         0.1962922334E+00      0.4566747752E+00
          0                 2           2             4    7     1      -0.3627022515E-03       4    7    1        -0.1962924908E-01      0.4564176289E-01
          0                 3           1             4    7     1       0.2469867498E-04       4    7    1         0.1374047779E-02      0.3192574762E-02

    ------------------------------------------------
       NWT REQUIRED            3 OUTER ITERATIONS 
       AND A TOTAL OF          5 INNER ITERATIONS.
    ------------------------------------------------

 NO OUTPUT CONTROL FOR STRESS PERIOD   13   TIME STEP    8
 
 SOLVING FOR HEAD 
                                                   Max.-Head-Change                         Max.-Flux-Residual
  Residual-Control   Outer-Iter.   Inner-Iter.     Column Row Layer    Maximum-Head-Change  Column Row Layer    Maximum-Flux-Residual          L2-NORM 
          0                 1           2             4    7     1       0.3680598771E-02       4    7    1         0.1937448712E+00      0.4515577519E+00
          0                 2           2             4    7     1      -0.3580222603E-03       4    7    1        -0.1937451207E-01      0.4513311824E-01
          0                 3           1             4    7     1       0.2437998518E-04       4    7    1         0.1356216198E-02      0.3157277731E-02

    ------------------------------------------------
       NWT REQUIRED            3 OUTER ITERATIONS 
       AND A TOTAL OF          5 INNER ITERATIONS.
    ------------------------------------------------

 NO OUTPUT CONTROL FOR STRESS PERIOD   13   TIME STEP    9
 
 SOLVING FOR HEAD 
                                                   Max.-Head-Change                         Max.-Flux-Residual
  Residual-Control   Outer-Iter.   Inner-Iter.     Column Row Layer    Maximum-Head-Change  Column Row Layer    Maximum-Flux-Residual          L2-NORM 
          0                 1           2             4    7     1       0.3633206400E-02       4    7    1         0.1912355089E+00      0.4465893500E+00
          0                 2           2             4    7     1      -0.3534122643E-03       4    7    1        -0.1912357509E-01      0.4463885631E-01
          0                 3           1             4    7     1       0.2406606199E-04       4    7    1         0.1338650620E-02      0.3122876197E-02

    ------------------------------------------------
       NWT REQUIRED            3 OUTER ITERATIONS 
       AND A TOTAL OF          5 INNER ITERATIONS.
    ------------------------------------------------

 NO OUTPUT CONTROL FOR STRESS PERIOD   13   TIME STEP   10
 
 SOLVING FOR HEAD 
                                                   Max.-Head-Change                         Max.-Flux-Residual
  Residual-Control   Outer-Iter.   Inner-Iter.     Column Row Layer    Maximum-Head-Change  Column Row Layer    Maximum-Flux-Residual          L2-NORM 
          0                 1           2             4    7     1       0.3586798930E-02       4    7    1         0.1887782663E+00      0.4417717961E+00
          0                 2           2             4    7     1      -0.3488980724E-03       4    7    1        -0.1887785011E-01      0.4415921844E-01
          0                 3           1             4    7     1       0.2375866223E-04       4    7    1         0.1321449866E-02      0.3089576648E-02

    ------------------------------------------------
       NWT REQUIRED            3 OUTER ITERATIONS 
       AND A TOTAL OF          5 INNER ITERATIONS.
    ------------------------------------------------

 NO OUTPUT CONTROL FOR STRESS PERIOD   13   TIME STEP   11
 
 SOLVING FOR HEAD 
                                                   Max.-Head-Change                         Max.-Flux-Residual
  Residual-Control   Outer-Iter.   Inner-Iter.     Column Row Layer    Maximum-Head-Change  Column Row Layer    Maximum-Flux-Residual          L2-NORM 
          0                 1           2             4    7     1       0.3541339353E-02       4    7    1         0.1863720898E+00      0.4370697688E+00
          0                 2           2             4    7     1      -0.3444760844E-03       4    7    1        -0.1863723175E-01      0.4369115099E-01
          0                 3           1             4    7     1       0.2345754140E-04       4    7    1         0.1304606571E-02      0.3056918944E-02

    ------------------------------------------------
       NWT REQUIRED            3 OUTER ITERATIONS 
       AND A TOTAL OF          5 INNER ITERATIONS.
    ------------------------------------------------

 NO OUTPUT CONTROL FOR STRESS PERIOD   13   TIME STEP   12
 
 SOLVING FOR HEAD 
                                                   Max.-Head-Change                         Max.-Flux-Residual
  Residual-Control   Outer-Iter.   Inner-Iter.     Column Row Layer    Maximum-Head-Change  Column Row Layer    Maximum-Flux-Residual          L2-NORM 
          0                 1           2             4    7     1       0.3496529842E-02       4    7    1         0.1840002489E+00      0.4324902859E+00
          0                 2           2             4    7     1      -0.3401173311E-03       4    7    1        -0.1840004699E-01      0.4323478357E-01
          0                 3           1             4    7     1       0.2316072638E-04       4    7    1         0.1288003640E-02      0.3025180208E-02

    ------------------------------------------------
       NWT REQUIRED            3 OUTER ITERATIONS 
       AND A TOTAL OF          5 INNER ITERATIONS.
    ------------------------------------------------

 NO OUTPUT CONTROL FOR STRESS PERIOD   13   TIME STEP   13
 
 SOLVING FOR HEAD 
                                                   Max.-Head-Change                         Max.-Flux-Residual
  Residual-Control   Outer-Iter.   Inner-Iter.     Column Row Layer    Maximum-Head-Change  Column Row Layer    Maximum-Flux-Residual          L2-NORM 
          0                 1           2             4    7     1       0.3452635491E-02       4    7    1         0.1816769245E+00      0.4280162302E+00
          0                 2           2             4    7     1      -0.3358475979E-03       4    7    1        -0.1816771389E-01      0.4278904830E-01
          0                 3           1             4    7     1       0.2286997303E-04       4    7    1         0.1271740311E-02      0.2994095131E-02

    ------------------------------------------------
       NWT REQUIRED            3 OUTER ITERATIONS 
       AND A TOTAL OF          5 INNER ITERATIONS.
    ------------------------------------------------

 NO OUTPUT CONTROL FOR STRESS PERIOD   13   TIME STEP   14
 
 SOLVING FOR HEAD 
                                                   Max.-Head-Change                         Max.-Flux-Residual
  Residual-Control   Outer-Iter.   Inner-Iter.     Column Row Layer    Maximum-Head-Change  Column Row Layer    Maximum-Flux-Residual          L2-NORM 
          0                 1           2             4    7     1       0.3409630129E-02       4    7    1         0.1794010501E+00      0.4236582306E+00
          0                 2           2             4    7     1      -0.3316643405E-03       4    7    1        -0.1794012585E-01      0.4235480457E-01
          0                 3           1             4    7     1       0.2258510953E-04       4    7    1         0.1255809183E-02      0.2963858109E-02

    ------------------------------------------------
       NWT REQUIRED            3 OUTER ITERATIONS 
       AND A TOTAL OF          5 INNER ITERATIONS.
    ------------------------------------------------

 NO OUTPUT CONTROL FOR STRESS PERIOD   13   TIME STEP   15
 
 SOLVING FOR HEAD 
                                                   Max.-Head-Change                         Max.-Flux-Residual
  Residual-Control   Outer-Iter.   Inner-Iter.     Column Row Layer    Maximum-Head-Change  Column Row Layer    Maximum-Flux-Residual          L2-NORM 
          0                 1           2             4    7     1       0.3367216827E-02       4    7    1         0.1771564571E+00      0.4193842437E+00
          0                 2           2             4    7     1      -0.3275386735E-03       4    7    1        -0.1771566594E-01      0.4192860272E-01
          0                 3           1             4    7     1       0.2230416652E-04       4    7    1         0.1240096952E-02      0.2934103597E-02

    ------------------------------------------------
       NWT REQUIRED            3 OUTER ITERATIONS 
       AND A TOTAL OF          5 INNER ITERATIONS.
    ------------------------------------------------

 NO OUTPUT CONTROL FOR STRESS PERIOD   13   TIME STEP   16
 
 SOLVING FOR HEAD 
                                                   Max.-Head-Change                         Max.-Flux-Residual
  Residual-Control   Outer-Iter.   Inner-Iter.     Column Row Layer    Maximum-Head-Change  Column Row Layer    Maximum-Flux-Residual          L2-NORM 
          0                 1           2             4    7     1       0.3325931620E-02       4    7    1         0.1749721851E+00      0.4152256782E+00
          0                 2           2             4    7     1      -0.3235227399E-03       4    7    1        -0.1749723815E-01      0.4151345923E-01
          0                 3           1             4    7     1       0.2203069647E-04       4    7    1         0.1224807017E-02      0.2905231134E-02

    ------------------------------------------------
       NWT REQUIRED            3 OUTER ITERATIONS 
       AND A TOTAL OF          5 INNER ITERATIONS.
    ------------------------------------------------

 NO OUTPUT CONTROL FOR STRESS PERIOD   13   TIME STEP   17
 
 SOLVING FOR HEAD 
                                                   Max.-Head-Change                         Max.-Flux-Residual
  Residual-Control   Outer-Iter.   Inner-Iter.     Column Row Layer    Maximum-Head-Change  Column Row Layer    Maximum-Flux-Residual          L2-NORM 
          0                 1           2             4    7     1       0.3284924521E-02       4    7    1         0.1728019680E+00      0.4111402054E+00
          0                 2           2             4    7     1      -0.3195338590E-03       4    7    1        -0.1728021586E-01      0.4110589176E-01
          0                 3           1             4    7     1       0.2175906845E-04       4    7    1         0.1209615448E-02      0.2876675158E-02

    ------------------------------------------------
       NWT REQUIRED            3 OUTER ITERATIONS 
       AND A TOTAL OF          5 INNER ITERATIONS.
    ------------------------------------------------

 NO OUTPUT CONTROL FOR STRESS PERIOD   13   TIME STEP   18
 
 SOLVING FOR HEAD 
                                                   Max.-Head-Change                         Max.-Flux-Residual
  Residual-Control   Outer-Iter.   Inner-Iter.     Column Row Layer    Maximum-Head-Change  Column Row Layer    Maximum-Flux-Residual          L2-NORM 
          0                 1           2             4    7     1       0.3245009957E-02       4    7    1         0.1706906063E+00      0.4071476593E+00
          0                 2           2             4    7     1      -0.3156512524E-03       4    7    1        -0.1706907914E-01      0.4070742948E-01
          0                 3           1             4    7     1       0.2149467766E-04       4    7    1         0.1194835883E-02      0.2848826263E-02

    ------------------------------------------------
       NWT REQUIRED            3 OUTER ITERATIONS 
       AND A TOTAL OF          5 INNER ITERATIONS.
    ------------------------------------------------

 NO OUTPUT CONTROL FOR STRESS PERIOD   13   TIME STEP   19
 
 SOLVING FOR HEAD 
                                                   Max.-Head-Change                         Max.-Flux-Residual
  Residual-Control   Outer-Iter.   Inner-Iter.     Column Row Layer    Maximum-Head-Change  Column Row Layer    Maximum-Flux-Residual          L2-NORM 
          0                 1           2             4    7     1       0.3205607041E-02       4    7    1         0.1686062670E+00      0.4032241634E+00
          0                 2           2             4    7     1      -0.3118184154E-03       4    7    1        -0.1686064468E-01      0.4031576252E-01
          0                 3           1             4    7     1       0.2123367580E-04       4    7    1         0.1180245473E-02      0.2821382081E-02

    ------------------------------------------------
       NWT REQUIRED            3 OUTER ITERATIONS 
       AND A TOTAL OF          5 INNER ITERATIONS.
    ------------------------------------------------

 NO OUTPUT CONTROL FOR STRESS PERIOD   13   TIME STEP   20
 
 SOLVING FOR HEAD 
                                                   Max.-Head-Change                         Max.-Flux-Residual
  Residual-Control   Outer-Iter.   Inner-Iter.     Column Row Layer    Maximum-Head-Change  Column Row Layer    Maximum-Flux-Residual          L2-NORM 
          0                 1           2             4    7     1       0.3166983480E-02       4    7    1         0.1665632681E+00      0.3993832837E+00
          0                 2           2             4    7     1      -0.3080613887E-03       4    7    1        -0.1665634429E-01      0.3993239224E-01
          0                 3           1             4    7     1       0.2097783625E-04       4    7    1         0.1165944447E-02      0.2794695900E-02

    ------------------------------------------------
       NWT REQUIRED            3 OUTER ITERATIONS 
       AND A TOTAL OF          5 INNER ITERATIONS.
    ------------------------------------------------

 NO OUTPUT CONTROL FOR STRESS PERIOD   13   TIME STEP   21
 
 SOLVING FOR HEAD 
                                                   Max.-Head-Change                         Max.-Flux-Residual
  Residual-Control   Outer-Iter.   Inner-Iter.     Column Row Layer    Maximum-Head-Change  Column Row Layer    Maximum-Flux-Residual          L2-NORM 
          0                 1           2             4    7     1       0.3128852136E-02       4    7    1         0.1645458656E+00      0.3956166353E+00
          0                 2           2             4    7     1      -0.3043522416E-03       4    7    1        -0.1645460356E-01      0.3955626476E-01
          0                 3           1             4    7     1       0.2072525688E-04       4    7    1         0.1151822575E-02      0.2768486618E-02

    ------------------------------------------------
       NWT REQUIRED            3 OUTER ITERATIONS 
       AND A TOTAL OF          5 INNER ITERATIONS.
    ------------------------------------------------

 NO OUTPUT CONTROL FOR STRESS PERIOD   13   TIME STEP   22
 
 SOLVING FOR HEAD 
                                                   Max.-Head-Change                         Max.-Flux-Residual
  Residual-Control   Outer-Iter.   Inner-Iter.     Column Row Layer    Maximum-Head-Change  Column Row Layer    Maximum-Flux-Residual          L2-NORM 
          0                 1           2             4    7     1       0.3091743046E-02       4    7    1         0.1625836089E+00      0.3919314644E+00
          0                 2           2             4    7     1      -0.3007425320E-03       4    7    1        -0.1625837741E-01      0.3918788125E-01
          0                 3           1             4    7     1       0.2047944944E-04       4    7    1         0.1138086755E-02      0.2742751444E-02

    ------------------------------------------------
       NWT REQUIRED            3 OUTER ITERATIONS 
       AND A TOTAL OF          5 INNER ITERATIONS.
    ------------------------------------------------

 NO OUTPUT CONTROL FOR STRESS PERIOD   13   TIME STEP   23
 
 SOLVING FOR HEAD 
                                                   Max.-Head-Change                         Max.-Flux-Residual
  Residual-Control   Outer-Iter.   Inner-Iter.     Column Row Layer    Maximum-Head-Change  Column Row Layer    Maximum-Flux-Residual          L2-NORM 
          0                 1           2             4    7     1       0.3055075644E-02       4    7    1         0.1606447297E+00      0.3883026262E+00
          0                 2           2             4    7     1      -0.2971757872E-03       4    7    1        -0.1606448904E-01      0.3882582150E-01
          0                 3           1             4    7     1       0.2023656704E-04       4    7    1         0.1124514569E-02      0.2717410633E-02

    ------------------------------------------------
       NWT REQUIRED            3 OUTER ITERATIONS 
       AND A TOTAL OF          5 INNER ITERATIONS.
    ------------------------------------------------

 NO OUTPUT CONTROL FOR STRESS PERIOD   13   TIME STEP   24
 
 SOLVING FOR HEAD 
                                                   Max.-Head-Change                         Max.-Flux-Residual
  Residual-Control   Outer-Iter.   Inner-Iter.     Column Row Layer    Maximum-Head-Change  Column Row Layer    Maximum-Flux-Residual          L2-NORM 
          0                 1           2             4    7     1       0.3019124295E-02       4    7    1         0.1587435640E+00      0.3847485459E+00
          0                 2           2             4    7     1      -0.2936786938E-03       4    7    1        -0.1587437198E-01      0.3847081297E-01
          0                 3           1             4    7     1       0.1999842805E-04       4    7    1         0.1111206364E-02      0.2692603018E-02

    ------------------------------------------------
       NWT REQUIRED            3 OUTER ITERATIONS 
       AND A TOTAL OF          5 INNER ITERATIONS.
    ------------------------------------------------

 NO OUTPUT CONTROL FOR STRESS PERIOD   13   TIME STEP   25
 
 SOLVING FOR HEAD 
                                                   Max.-Head-Change                         Max.-Flux-Residual
  Residual-Control   Outer-Iter.   Inner-Iter.     Column Row Layer    Maximum-Head-Change  Column Row Layer    Maximum-Flux-Residual          L2-NORM 
          0                 1           2             4    7     1       0.2983593511E-02       4    7    1         0.1568647123E+00      0.3812531581E+00
          0                 2           2             4    7     1      -0.2902225120E-03       4    7    1        -0.1568648641E-01      0.3812167152E-01
          0                 3           1             4    7     1       0.1976307542E-04       4    7    1         0.1098054386E-02      0.2668188536E-02

    ------------------------------------------------
       NWT REQUIRED            3 OUTER ITERATIONS 
       AND A TOTAL OF          5 INNER ITERATIONS.
    ------------------------------------------------

 NO OUTPUT CONTROL FOR STRESS PERIOD   13   TIME STEP   26
 
 SOLVING FOR HEAD 
                                                   Max.-Head-Change                         Max.-Flux-Residual
  Residual-Control   Outer-Iter.   Inner-Iter.     Column Row Layer    Maximum-Head-Change  Column Row Layer    Maximum-Flux-Residual          L2-NORM 
          0                 1           2             4    7     1       0.2948752143E-02       4    7    1         0.1550224790E+00      0.3778220190E+00
          0                 2           2             4    7     1      -0.2868333909E-03       4    7    1        -0.1550226267E-01      0.3777884561E-01
          0                 3           1             4    7     1       0.1953228869E-04       4    7    1         0.1085158725E-02      0.2644077824E-02

    ------------------------------------------------
       NWT REQUIRED            3 OUTER ITERATIONS 
       AND A TOTAL OF          5 INNER ITERATIONS.
    ------------------------------------------------

 NO OUTPUT CONTROL FOR STRESS PERIOD   13   TIME STEP   27
 
 SOLVING FOR HEAD 
                                                   Max.-Head-Change                         Max.-Flux-Residual
  Residual-Control   Outer-Iter.   Inner-Iter.     Column Row Layer    Maximum-Head-Change  Column Row Layer    Maximum-Flux-Residual          L2-NORM 
          0                 1           2             4    7     1       0.2914579155E-02       4    7    1         0.1532159911E+00      0.3744493713E+00
          0                 2           2             4    7     1      -0.2835092846E-03       4    7    1        -0.1532161346E-01      0.3744185056E-01
          0                 3           1             4    7     1       0.1930592916E-04       4    7    1         0.1072513269E-02      0.2620888428E-02

    ------------------------------------------------
       NWT REQUIRED            3 OUTER ITERATIONS 
       AND A TOTAL OF          5 INNER ITERATIONS.
    ------------------------------------------------

 NO OUTPUT CONTROL FOR STRESS PERIOD   13   TIME STEP   28
 
 SOLVING FOR HEAD 
                                                   Max.-Head-Change                         Max.-Flux-Residual
  Residual-Control   Outer-Iter.   Inner-Iter.     Column Row Layer    Maximum-Head-Change  Column Row Layer    Maximum-Flux-Residual          L2-NORM 
          0                 1           2             4    7     1       0.2881063860E-02       4    7    1         0.1514441579E+00      0.3711454470E+00
          0                 2           2             4    7     1      -0.2802491547E-03       4    7    1        -0.1514442977E-01      0.3711170876E-01
          0                 3           1             4    7     1       0.1908392656E-04       4    7    1         0.1060110403E-02      0.2597565043E-02

    ------------------------------------------------
       NWT REQUIRED            3 OUTER ITERATIONS 
       AND A TOTAL OF          5 INNER ITERATIONS.
    ------------------------------------------------

 NO OUTPUT CONTROL FOR STRESS PERIOD   13   TIME STEP   29
 
 SOLVING FOR HEAD 
                                                   Max.-Head-Change                         Max.-Flux-Residual
  Residual-Control   Outer-Iter.   Inner-Iter.     Column Row Layer    Maximum-Head-Change  Column Row Layer    Maximum-Flux-Residual          L2-NORM 
          0                 1           2             4    7     1       0.2847907493E-02       4    7    1         0.1496916124E+00      0.3678864179E+00
          0                 2           2             4    7     1      -0.2770239384E-03       4    7    1        -0.1496917481E-01      0.3678607097E-01
          0                 3           1             4    7     1       0.1886430157E-04       4    7    1         0.1047842558E-02      0.2574797471E-02

    ------------------------------------------------
       NWT REQUIRED            3 OUTER ITERATIONS 
       AND A TOTAL OF          5 INNER ITERATIONS.
    ------------------------------------------------

 NO OUTPUT CONTROL FOR STRESS PERIOD   13   TIME STEP   30



 STREAM LISTING     PERIOD     13   STEP       30

 LAYER ROW COL. STREAM  RCH.  FLOW INTO     FLOW TO   FLOW OUT OF   OVRLND.     DIRECT     STREAM       STREAM     STREAM     STREAM   STREAMBED  STREAMBED
                SEG.NO.  NO.  STRM. RCH.    AQUIFER    STRM. RCH.    RUNOFF     PRECIP       ET          HEAD       DEPTH      WIDTH   CONDCTNC.   GRADIENT

   1    1    1     1     1    1.7250E+01  2.0269E-01   1.7047E+01  0.000E+00  0.000E+00  0.000E+00  1.09410E+03  1.052E+00  1.112E+01  5.002E-02  1.351E+00
   1    2    2     1     2    1.7047E+01  3.1258E-01   1.6735E+01  0.000E+00  0.000E+00  0.000E+00  1.08911E+03  1.047E+00  1.103E+01  7.723E-02  1.349E+00
   1    3    3     1     3    1.6735E+01  2.6529E-01   1.6469E+01  0.000E+00  0.000E+00  0.000E+00  1.08346E+03  1.042E+00  1.094E+01  6.563E-02  1.347E+00
   1    3    4     1     4    1.6469E+01  2.4324E-01   1.6226E+01  0.000E+00  0.000E+00  0.000E+00  1.07845E+03  1.038E+00  1.085E+01  6.024E-02  1.346E+00
   1    4    5     2     1    1.4226E+01  3.0073E-01   1.3925E+01  0.000E+00  0.000E+00  0.000E+00  1.07279E+03  8.555E-01  1.200E+01  7.800E-02  1.285E+00
   1    5    6     2     2    1.3925E+01  2.3075E-01   1.3695E+01  0.000E+00  0.000E+00  0.000E+00  1.06736E+03  8.458E-01  1.200E+01  6.000E-02  1.282E+00
   1    6    6     2     3    1.3695E+01  2.3024E-01   1.3464E+01  0.000E+00  0.000E+00  0.000E+00  1.06263E+03  8.373E-01  1.200E+01  6.000E-02  1.279E+00
   1    7    6     2     4    1.3464E+01  2.2972E-01   1.3235E+01  0.000E+00  0.000E+00  0.000E+00  1.05790E+03  8.287E-01  1.200E+01  6.000E-02  1.276E+00
   1    8    6     2     5    1.3235E+01  2.2921E-01   1.3005E+01  0.000E+00  0.000E+00  0.000E+00  1.05318E+03  8.202E-01  1.200E+01  6.000E-02  1.273E+00
   1    3    5     3     1    2.0000E+00  2.8252E-01   1.7175E+00  0.000E+00  0.000E+00  0.000E+00  1.07555E+03  1.909E+00  9.636E+00  7.227E-02  1.955E+00
   1    3    6     3     2    1.7175E+00  2.4905E-01   1.4684E+00  0.000E+00  0.000E+00  0.000E+00  1.07264E+03  1.727E+00  8.909E+00  6.682E-02  1.864E+00
   1    3    7     3     3    1.4684E+00  1.9718E-01   1.2712E+00  0.000E+00  0.000E+00  0.000E+00  1.06987E+03  1.555E+00  8.218E+00  5.547E-02  1.777E+00
   1    4    8     3     4    1.2712E+00  2.2567E-01   1.0456E+00  0.000E+00  0.000E+00  0.000E+00  1.06682E+03  1.364E+00  7.455E+00  6.709E-02  1.682E+00
   1    5    8     3     5    1.0456E+00  1.5790E-01   8.8768E-01  0.000E+00  0.000E+00  0.000E+00  1.06362E+03  1.164E+00  6.655E+00  4.991E-02  1.582E+00
   1    6    8     3     6    8.8768E-01  5.5980E-02   8.3170E-01  0.000E+00  0.000E+00  0.000E+00  1.06158E+03  1.036E+00  6.145E+00  1.844E-02  1.518E+00
   1    5   10     4     1    1.0000E+01  9.0919E-02   9.9091E+00  0.000E+00  0.000E+00  0.000E+00  1.07836E+03  6.368E-01  1.000E+01  2.500E-02  1.212E+00
   1    5    9     4     2    9.9091E+00  1.8158E-01   9.7275E+00  0.000E+00  0.000E+00  0.000E+00  1.07154E+03  6.315E-01  1.000E+01  5.000E-02  1.211E+00
   1    6    8     4     3    9.7275E+00  1.2689E-01   9.6006E+00  0.000E+00  0.000E+00  0.000E+00  1.06381E+03  6.256E-01  1.000E+01  3.500E-02  1.209E+00
   1    6    8     5     1    1.0432E+01  2.2686E-01   1.0205E+01  0.000E+00  0.000E+00  0.000E+00  1.05868E+03  6.790E-01  1.542E+01  6.166E-02  1.226E+00
   1    7    7     5     2    1.0205E+01  2.7894E-01   9.9265E+00  0.000E+00  0.000E+00  0.000E+00  1.05417E+03  6.732E-01  1.519E+01  7.594E-02  1.224E+00
   1    8    7     5     3    9.9265E+00  1.9221E-01   9.7343E+00  0.000E+00  0.000E+00  0.000E+00  1.04992E+03  6.676E-01  1.497E+01  5.241E-02  1.223E+00
   1    8    6     5     4    9.7343E+00  1.3577E-01   9.5985E+00  0.000E+00  0.000E+00  0.000E+00  1.04691E+03  6.637E-01  1.482E+01  3.706E-02  1.221E+00
   1    9    6     6     1    2.2604E+01  2.4874E-01   2.2355E+01  0.000E+00  0.000E+00  0.000E+00  1.04387E+03  1.146E+00  1.200E+01  6.000E-02  1.382E+00
   1   10    7     6     2    2.2355E+01  2.4828E-01   2.2107E+01  0.000E+00  0.000E+00  0.000E+00  1.03932E+03  1.138E+00  1.200E+01  6.000E-02  1.379E+00
   1   11    7     6     3    2.2107E+01  2.4782E-01   2.1859E+01  0.000E+00  0.000E+00  0.000E+00  1.03477E+03  1.130E+00  1.200E+01  6.000E-02  1.377E+00
   1   12    7     6     4    2.1859E+01  2.4736E-01   2.1612E+01  0.000E+00  0.000E+00  0.000E+00  1.03021E+03  1.123E+00  1.200E+01  6.000E-02  1.374E+00
   1   13    7     6     5    2.1612E+01 -2.3886E-02   2.1636E+01  0.000E+00  0.000E+00  0.000E+00  1.02703E+03  1.119E+00  1.200E+01  2.400E-01 -3.317E-02
   1   14    9     7     1    1.5000E+02  1.3359E+00   1.4866E+02  0.000E+00  0.000E+00  0.000E+00  1.03987E+03  2.288E+00  5.529E+01  5.593E-01  7.962E-01
   1   13    8     7     2    1.4866E+02  1.8211E+00   1.4684E+02  0.000E+00  0.000E+00  0.000E+00  1.03478E+03  2.279E+00  5.526E+01  6.148E-01  9.874E-01
   1   13    7     7     3    1.4684E+02  1.4308E+00   1.4541E+02  0.000E+00  0.000E+00  0.000E+00  1.02969E+03  2.271E+00  5.522E+01  5.585E-01  8.540E-01
   1   13    6     8     1    1.6705E+02  8.6047E-01   1.6619E+02  0.000E+00  0.000E+00  0.000E+00  1.02481E+03  2.930E+00  4.249E+01  4.329E-01  6.625E-01
   1   13    5     8     2    1.6619E+02  1.1699E-01   1.6607E+02  0.000E+00  0.000E+00  0.000E+00  1.01855E+03  2.927E+00  4.244E+01  4.325E-01  9.017E-02
   1   13    4     8     3    1.6607E+02 -2.6422E+00   1.6871E+02  0.000E+00  0.000E+00  0.000E+00  1.01231E+03  2.935E+00  4.256E+01  4.337E+00 -2.031E-01
   1   13    3     8     4    1.6871E+02 -3.7433E+00   1.7246E+02  0.000E+00  0.000E+00  0.000E+00  1.00608E+03  2.956E+00  4.286E+01  4.368E+00 -2.857E-01
   1   13    2     8     5    1.7246E+02 -2.5992E+00   1.7505E+02  0.000E+00  0.000E+00  0.000E+00  9.99852E+02  2.976E+00  4.316E+01  4.398E+00 -1.970E-01
   1   13    1     8     6    1.7505E+02 -1.9898E+00   1.7704E+02  0.000E+00  0.000E+00  0.000E+00  9.94866E+02  2.991E+00  4.337E+01  2.652E+00 -2.501E-01
   1    8    6     9     1    0.0000E+00  0.0000E+00   0.0000E+00  0.000E+00  0.000E+00  0.000E+00  1.07875E+03  0.000E+00  4.000E+00  0.000E+00  1.000E+00
   1    8    5     9     2    0.0000E+00  0.0000E+00   0.0000E+00  0.000E+00  0.000E+00  0.000E+00  1.07825E+03  0.000E+00  4.000E+00  0.000E+00  1.000E+00





UNSATURATED ZONE PACKAGE VOLUMETRIC BUDGET FOR  TIME STEP    30 STRESS PERIOD   13
  ------------------------------------------------------------------------------



     CUMULATIVE VOLUMES      L**3       RATES FOR THIS TIME STEP      L**3/T
     ------------------                 ------------------------

           IN:                                      IN:
           ---                                      ---
        INFILTRATION =   434895905.1145          INFILTRATION =           0.8475

          OUT:                                     OUT:
          ----                                     ----
              UZF ET =   430027978.4872                UZF ET =           0.7500
        UZF RECHARGE =       73224.0000          UZF RECHARGE =       0.0000E+00

            IN - OUT =     4794702.6273              IN - OUT =       9.7500E-02

          STORAGE:                                 STORAGE:
          --------                                 --------
      STORAGE CHANGE =     4794905.5622        STORAGE CHANGE =       9.7500E-02

 PERCENT DISCREPANCY IS DIFFERENCE BETWEEN IN-OUT MINUS CHANGE IN STORAGE
 DIVIDED BY THE AVERAGE OF IN AND OUT TIMES 100

 PERCENT DISCREPANCY =          -0.00     PERCENT DISCREPANCY =           0.00






1
  VOLUMETRIC BUDGET FOR AGRICULTURAL FIELDS AT  END OF TIME STEP   30, STRESS PERIOD  13
  ------------------------------------------------------------------------------

     CUMULATIVE VOLUMES      L**3       RATES FOR THIS TIME STEP      L**3/T
     ------------------                 ------------------------

           IN:                                      IN:
           ---                                      ---
               AG WELLS  =    49128108.0000                 AG WELLS  =           0.0000
      DIVERSION SEGMENTS =   358973504.0000        DIVERSION SEGMENTS =           0.0000
       IRRIGATION PONDS  =           0.0000         IRRIGATION PONDS  =           0.0000
           GW IRRIGATION =           0.0000             GW IRRIGATION =           0.0000
           SW IRRIGATION =           0.0000             SW IRRIGATION =           0.0000
        SYSTEM LOSSES GW =           0.0000          SYSTEM LOSSES GW =           0.0000
        SYSTEM LOSSES SW =           0.0000          SYSTEM LOSSES SW =           0.0000

                TOTAL IN =   408101600.0000                  TOTAL IN =           0.0000

          OUT:                                     OUT:
          ----                                     ----
               AG WELLS  =           0.0000                 AG WELLS  =           0.0000
      DIVERSION SEGMENTS =           0.0000        DIVERSION SEGMENTS =           0.0000
       IRRIGATION PONDS  =           0.0000         IRRIGATION PONDS  =           0.0000
           GW IRRIGATION =    49128108.0000             GW IRRIGATION =           0.0000
           SW IRRIGATION =   358980608.0000             SW IRRIGATION =           0.0000
        SYSTEM LOSSES GW =           0.0000          SYSTEM LOSSES GW =           0.0000
        SYSTEM LOSSES SW =           0.0000          SYSTEM LOSSES SW =           0.0000

               TOTAL OUT =   408108704.0000                 TOTAL OUT =           0.0000

                IN - OUT =       -7104.0000                  IN - OUT =           0.0000

     PERCENT DISCREPANCY =          -0.00         PERCENT DISCREPANCY =           0.00



1
  VOLUMETRIC BUDGET FOR ENTIRE MODEL AT END OF TIME STEP   30, STRESS PERIOD  13
  ------------------------------------------------------------------------------

     CUMULATIVE VOLUMES      L**3       RATES FOR THIS TIME STEP      L**3/T
     ------------------                 ------------------------

           IN:                                      IN:
           ---                                      ---
             STORAGE     =    86218240.0000               STORAGE     =           1.1272
       CONSTANT HEAD     =           0.0000         CONSTANT HEAD     =           0.0000
     HEAD DEP BOUNDS     =     9042640.0000       HEAD DEP BOUNDS     =           0.2858
      STREAM LEAKAGE     =   378702720.0000        STREAM LEAKAGE     =          11.2035
        UZF RECHARGE     =       73223.9531          UZF RECHARGE     =           0.0000
               GW ET     =           0.0000                 GW ET     =           0.0000
     SURFACE LEAKAGE     =           0.0000       SURFACE LEAKAGE     =           0.0000
           AG WELLS      =           0.0000             AG WELLS      =           0.0000

                TOTAL IN =   474036800.0000                  TOTAL IN =          12.6164

          OUT:                                     OUT:
          ----                                     ----
             STORAGE     =    71014568.0000               STORAGE     =           1.3287
       CONSTANT HEAD     =           0.0000         CONSTANT HEAD     =           0.0000
     HEAD DEP BOUNDS     =     9201453.0000       HEAD DEP BOUNDS     =           0.2894
      STREAM LEAKAGE     =   343156224.0000        STREAM LEAKAGE     =          10.9984
        UZF RECHARGE     =           0.0000          UZF RECHARGE     =           0.0000
               GW ET     =     1538617.0000                 GW ET     =           0.0000
     SURFACE LEAKAGE     =           0.0000       SURFACE LEAKAGE     =           0.0000
           AG WELLS      =    49128108.0000             AG WELLS      =           0.0000

               TOTAL OUT =   474038976.0000                 TOTAL OUT =          12.6165

                IN - OUT =       -2176.0000                  IN - OUT =      -5.3406E-05

     PERCENT DISCREPANCY =          -0.00         PERCENT DISCREPANCY =          -0.00






         TIME SUMMARY AT END OF TIME STEP   30 IN STRESS PERIOD   13
                    SECONDS     MINUTES      HOURS       DAYS        YEARS
                    -----------------------------------------------------------
   TIME STEP LENGTH  87667.      1461.1      24.352      1.0147     2.77799E-03
 STRESS PERIOD TIME 2.63000E+06  43833.      730.56      30.440     8.33397E-02
         TOTAL TIME 3.16463E+07 5.27439E+05  8790.6      366.28      1.0028    
1
1
                            STRESS PERIOD NO.   14, LENGTH =   2630000.    
                            -----------------------------------------------

                              NUMBER OF TIME STEPS =    30

                               MULTIPLIER FOR DELT =     1.000

                            INITIAL TIME STEP SIZE =   87666.66    

 REUSING NON-PARAMETER GHB CELLS FROM LAST STRESS PERIOD

      2 GHB CELLS

 REUSING STREAM SEGMENT DATA FROM LAST STRESS PERIOD



            AREAL INFILTRATION RATE
 READING ON UNIT   19 WITH FORMAT: (FREE)              

            1           2           3           4           5           6           7           8           9          10
 ........................................................................................................................
   1   1.0000E-10  2.0000E-10   0.000       0.000       0.000       0.000       0.000       0.000       0.000       0.000    
   2   2.0000E-10  1.0000E-10  2.0000E-10   0.000       0.000      8.0000E-10  8.0000E-10  5.0000E-10   0.000       0.000    
   3    0.000      5.0000E-10  1.0000E-10  1.0000E-10  8.0000E-10  8.0000E-10  5.0000E-10  5.0000E-10   0.000       0.000    
   4   8.0000E-10  5.0000E-10  1.0000E-10  1.0000E-10  1.0000E-10  1.0000E-10  1.0000E-10  1.0000E-10  2.0000E-10   0.000    
   5   8.0000E-10  5.0000E-10  1.0000E-10  1.0000E-10  1.0000E-10  1.0000E-10  1.0000E-10  1.0000E-10  1.0000E-10  1.0000E-10
   6   8.0000E-10  5.0000E-10  5.0000E-10  2.0000E-10  2.0000E-10  1.0000E-10  1.0000E-10  1.0000E-10  1.0000E-10  5.0000E-10
   7   8.0000E-10  5.0000E-10  5.0000E-10  2.0000E-10  2.0000E-10  1.0000E-10  1.0000E-10  2.0000E-10  2.0000E-10   0.000    
   8    0.000      5.0000E-10  5.0000E-10  2.0000E-10  2.0000E-10  1.0000E-10  1.0000E-10  2.0000E-10  5.0000E-10   0.000    
   9    0.000      5.0000E-10  5.0000E-10  2.0000E-10  2.0000E-10  1.0000E-10  1.0000E-10  2.0000E-10  5.0000E-10   0.000    
  10    0.000      5.0000E-10  5.0000E-10  2.0000E-10  2.0000E-10  1.0000E-10  1.0000E-10  2.0000E-10  5.0000E-10  8.0000E-10
  11    0.000      1.0000E-10  1.0000E-10  1.0000E-10  1.0000E-10  1.0000E-10  1.0000E-10  2.0000E-10  5.0000E-10   0.000    
  12   1.0000E-10  1.0000E-10  1.0000E-10  1.0000E-10  1.0000E-10  1.0000E-10  1.0000E-10  1.0000E-10  2.0000E-10   0.000    
  13   1.0000E-10  1.0000E-10  2.0000E-10  2.0000E-10  2.0000E-10  2.0000E-10  2.0000E-10  1.0000E-10  1.0000E-10   0.000    
  14    0.000      2.0000E-10  5.0000E-10  5.0000E-10  5.0000E-10  5.0000E-10  5.0000E-10  2.0000E-10  1.0000E-10   0.000    
  15    0.000       0.000      8.0000E-10  8.0000E-10  8.0000E-10  8.0000E-10   0.000       0.000       0.000       0.000    

                  ET RATE =  5.000000E-10

 USING ET EXTINCTION DEPTH FROM PREVIOUS STRESS PERIOD. CURRENT PERIOD IS:      14

 USING EXTINCTION WATER CONTENT FROM PREVIOUS STRESS PERIOD. CURRENT PERIOD IS:      14

 USING AIR ENTRY PRESSURE FROM PREVIOUS STRESS PERIOD. CURRENT PERIOD IS:      14

 USING ROOT PRESSURE HEAD FROM PREVIOUS STRESS PERIOD. CURRENT PERIOD IS:      14

 USING ROOT ACTIVITY FROM PREVIOUS STRESS PERIOD. CURRENT PERIOD IS:      14

 PROCESSING AG STRESS PERIOD DATA

 READING AG STRESS PERIOD DATA

 READING IRRIGATION SEGMENT

 READING IRRIGATION WELL

 READING SUPPLEMENTAL WELL

 NO IRRPOND OR REUSING IRRPOND DATA FROM LAST STRESS PERIOD

 END PROCESSING AG STRESS PERIOD DATA OPTIONS
 
 SOLVING FOR HEAD 
                                                   Max.-Head-Change                         Max.-Flux-Residual
  Residual-Control   Outer-Iter.   Inner-Iter.     Column Row Layer    Maximum-Head-Change  Column Row Layer    Maximum-Flux-Residual          L2-NORM 
          0                 1           2             4    7     1       0.2815648297E-02       4    7    1         0.1479873030E+00      0.3707955092E+00
          0                 2           2             4    7     1      -0.2738859934E-03       4    7    1        -0.1479874352E-01      0.3705268459E-01
          0                 3           1             4    7     1       0.1865061898E-04       4    7    1         0.1035912379E-02      0.2591249591E-02

    ------------------------------------------------
       NWT REQUIRED            3 OUTER ITERATIONS 
       AND A TOTAL OF          5 INNER ITERATIONS.
    ------------------------------------------------

 NO OUTPUT CONTROL FOR STRESS PERIOD   14   TIME STEP    1
 
 SOLVING FOR HEAD 
                                                   Max.-Head-Change                         Max.-Flux-Residual
  Residual-Control   Outer-Iter.   Inner-Iter.     Column Row Layer    Maximum-Head-Change  Column Row Layer    Maximum-Flux-Residual          L2-NORM 
          0                 1           2             4    7     1       0.2783687812E-02       4    7    1         0.1462998843E+00      0.3882596508E+00
          0                 2           2             4    7     1      -0.2707771047E-03       4    7    1        -0.1463000131E-01      0.3871970416E-01
          0                 3           1             4    7     1       0.1843891545E-04       4    7    1         0.1024100426E-02      0.2700743496E-02

    ------------------------------------------------
       NWT REQUIRED            3 OUTER ITERATIONS 
       AND A TOTAL OF          5 INNER ITERATIONS.
    ------------------------------------------------

 NO OUTPUT CONTROL FOR STRESS PERIOD   14   TIME STEP    2
 
 SOLVING FOR HEAD 
                                                   Max.-Head-Change                         Max.-Flux-Residual
  Residual-Control   Outer-Iter.   Inner-Iter.     Column Row Layer    Maximum-Head-Change  Column Row Layer    Maximum-Flux-Residual          L2-NORM 
          0                 1           2             4    7     1       0.2752031218E-02       4    7    1         0.1446279530E+00      0.3825120469E+00
          0                 2           2             4    7     1      -0.2676977759E-03       4    7    1        -0.1446280783E-01      0.3815794056E-01
          0                 3           1             4    7     1       0.1822922458E-04       4    7    1         0.1012396872E-02      0.2662447981E-02

    ------------------------------------------------
       NWT REQUIRED            3 OUTER ITERATIONS 
       AND A TOTAL OF          5 INNER ITERATIONS.
    ------------------------------------------------

 NO OUTPUT CONTROL FOR STRESS PERIOD   14   TIME STEP    3
 
 SOLVING FOR HEAD 
                                                   Max.-Head-Change                         Max.-Flux-Residual
  Residual-Control   Outer-Iter.   Inner-Iter.     Column Row Layer    Maximum-Head-Change  Column Row Layer    Maximum-Flux-Residual          L2-NORM 
          0                 1           2             4    7     1       0.2721218250E-02       4    7    1         0.1430014051E+00      0.3771528594E+00
          0                 2           2             4    7     1      -0.2647005101E-03       4    7    1        -0.1430015272E-01      0.3763323160E-01
          0                 3           1             4    7     1       0.1802512205E-04       4    7    1         0.1001011021E-02      0.2626323943E-02

    ------------------------------------------------
       NWT REQUIRED            3 OUTER ITERATIONS 
       AND A TOTAL OF          5 INNER ITERATIONS.
    ------------------------------------------------

 NO OUTPUT CONTROL FOR STRESS PERIOD   14   TIME STEP    4
 
 SOLVING FOR HEAD 
                                                   Max.-Head-Change                         Max.-Flux-Residual
  Residual-Control   Outer-Iter.   Inner-Iter.     Column Row Layer    Maximum-Head-Change  Column Row Layer    Maximum-Flux-Residual          L2-NORM 
          0                 1           2             4    7     1       0.2690678489E-02       4    7    1         0.1413889711E+00      0.3721157192E+00
          0                 2           2             4    7     1      -0.2617298197E-03       4    7    1        -0.1413890902E-01      0.3713911465E-01
          0                 3           1             4    7     1       0.1782282912E-04       4    7    1         0.9897239634E-03      0.2592791648E-02

    ------------------------------------------------
       NWT REQUIRED            3 OUTER ITERATIONS 
       AND A TOTAL OF          5 INNER ITERATIONS.
    ------------------------------------------------

 NO OUTPUT CONTROL FOR STRESS PERIOD   14   TIME STEP    5
 
 SOLVING FOR HEAD 
                                                   Max.-Head-Change                         Max.-Flux-Residual
  Residual-Control   Outer-Iter.   Inner-Iter.     Column Row Layer    Maximum-Head-Change  Column Row Layer    Maximum-Flux-Residual          L2-NORM 
          0                 1           2             4    7     1       0.2660690974E-02       4    7    1         0.1398055162E+00      0.3673791585E+00
          0                 2           2             4    7     1      -0.2588128473E-03       4    7    1        -0.1398056321E-01      0.3667395608E-01
          0                 3           1             4    7     1       0.1762419374E-04       4    7    1         0.9786397391E-03      0.2561167371E-02

    ------------------------------------------------
       NWT REQUIRED            3 OUTER ITERATIONS 
       AND A TOTAL OF          5 INNER ITERATIONS.
    ------------------------------------------------

 NO OUTPUT CONTROL FOR STRESS PERIOD   14   TIME STEP    6
 
 SOLVING FOR HEAD 
                                                   Max.-Head-Change                         Max.-Flux-Residual
  Residual-Control   Outer-Iter.   Inner-Iter.     Column Row Layer    Maximum-Head-Change  Column Row Layer    Maximum-Flux-Residual          L2-NORM 
          0                 1           2             4    7     1       0.2631234393E-02       4    7    1         0.1382506947E+00      0.3628874327E+00
          0                 2           2             4    7     1      -0.2559475207E-03       4    7    1        -0.1382508075E-01      0.3623262185E-01
          0                 3           1             4    7     1       0.1742907556E-04       4    7    1         0.9677559569E-03      0.2530896586E-02

    ------------------------------------------------
       NWT REQUIRED            3 OUTER ITERATIONS 
       AND A TOTAL OF          5 INNER ITERATIONS.
    ------------------------------------------------

 NO OUTPUT CONTROL FOR STRESS PERIOD   14   TIME STEP    7
 
 SOLVING FOR HEAD 
                                                   Max.-Head-Change                         Max.-Flux-Residual
  Residual-Control   Outer-Iter.   Inner-Iter.     Column Row Layer    Maximum-Head-Change  Column Row Layer    Maximum-Flux-Residual          L2-NORM 
          0                 1           2             4    7     1       0.2602293501E-02       4    7    1         0.1367234015E+00      0.3586297430E+00
          0                 2           2             4    7     1      -0.2531323570E-03       4    7    1        -0.1367235115E-01      0.3581323347E-01
          0                 3           1             4    7     1       0.1723737353E-04       4    7    1         0.9570648986E-03      0.2502322271E-02

    ------------------------------------------------
       NWT REQUIRED            3 OUTER ITERATIONS 
       AND A TOTAL OF          5 INNER ITERATIONS.
    ------------------------------------------------

 NO OUTPUT CONTROL FOR STRESS PERIOD   14   TIME STEP    8
 
 SOLVING FOR HEAD 
                                                   Max.-Head-Change                         Max.-Flux-Residual
  Residual-Control   Outer-Iter.   Inner-Iter.     Column Row Layer    Maximum-Head-Change  Column Row Layer    Maximum-Flux-Residual          L2-NORM 
          0                 1           2             4    7     1       0.2573594195E-02       4    7    1         0.1352080322E+00      0.3545702768E+00
          0                 2           2             4    7     1      -0.2503406932E-03       4    7    1        -0.1352081395E-01      0.3541311885E-01
          0                 3           1             4    7     1       0.1704727164E-04       4    7    1         0.9464572868E-03      0.2474846864E-02

    ------------------------------------------------
       NWT REQUIRED            3 OUTER ITERATIONS 
       AND A TOTAL OF          5 INNER ITERATIONS.
    ------------------------------------------------

 NO OUTPUT CONTROL FOR STRESS PERIOD   14   TIME STEP    9
 
 SOLVING FOR HEAD 
                                                   Max.-Head-Change                         Max.-Flux-Residual
  Residual-Control   Outer-Iter.   Inner-Iter.     Column Row Layer    Maximum-Head-Change  Column Row Layer    Maximum-Flux-Residual          L2-NORM 
          0                 1           2             4    7     1       0.2545403774E-02       4    7    1         0.1337200029E+00      0.3506877056E+00
          0                 2           2             4    7     1      -0.2476043187E-03       4    7    1        -0.1337201072E-01      0.3503640493E-01
          0                 3           1             4    7     1       0.1686093498E-04       4    7    1         0.9360410545E-03      0.2448961997E-02

    ------------------------------------------------
       NWT REQUIRED            3 OUTER ITERATIONS 
       AND A TOTAL OF          5 INNER ITERATIONS.
    ------------------------------------------------

 NO OUTPUT CONTROL FOR STRESS PERIOD   14   TIME STEP   10
 
 SOLVING FOR HEAD 
                                                   Max.-Head-Change                         Max.-Flux-Residual
  Residual-Control   Outer-Iter.   Inner-Iter.     Column Row Layer    Maximum-Head-Change  Column Row Layer    Maximum-Flux-Residual          L2-NORM 
          0                 1           2             4    7     1       0.2517691616E-02       4    7    1         0.1322580509E+00      0.3469524727E+00
          0                 2           2             4    7     1      -0.2449028884E-03       4    7    1        -0.1322581526E-01      0.3466042355E-01
          0                 3           1             4    7     1       0.1667697737E-04       4    7    1         0.9258073760E-03      0.2422740830E-02

    ------------------------------------------------
       NWT REQUIRED            3 OUTER ITERATIONS 
       AND A TOTAL OF          5 INNER ITERATIONS.
    ------------------------------------------------

 NO OUTPUT CONTROL FOR STRESS PERIOD   14   TIME STEP   11
 
 SOLVING FOR HEAD 
                                                   Max.-Head-Change                         Max.-Flux-Residual
  Residual-Control   Outer-Iter.   Inner-Iter.     Column Row Layer    Maximum-Head-Change  Column Row Layer    Maximum-Flux-Residual          L2-NORM 
          0                 1           2             4    7     1       0.2490461582E-02       4    7    1         0.1308215116E+00      0.3433605511E+00
          0                 2           2             4    7     1      -0.2422541450E-03       4    7    1        -0.1308216107E-01      0.3430535679E-01
          0                 3           1             4    7     1       0.1649660772E-04       4    7    1         0.9157515806E-03      0.2398769456E-02

    ------------------------------------------------
       NWT REQUIRED            3 OUTER ITERATIONS 
       AND A TOTAL OF          5 INNER ITERATIONS.
    ------------------------------------------------

 NO OUTPUT CONTROL FOR STRESS PERIOD   14   TIME STEP   12
 
 SOLVING FOR HEAD 
                                                   Max.-Head-Change                         Max.-Flux-Residual
  Residual-Control   Outer-Iter.   Inner-Iter.     Column Row Layer    Maximum-Head-Change  Column Row Layer    Maximum-Flux-Residual          L2-NORM 
          0                 1           2             4    7     1       0.2463429523E-02       4    7    1         0.1293948480E+00      0.3398972921E+00
          0                 2           2             4    7     1      -0.2396246592E-03       4    7    1        -0.1293949447E-01      0.3396259269E-01
          0                 3           1             4    7     1       0.1631754948E-04       4    7    1         0.9057649108E-03      0.2374909307E-02

    ------------------------------------------------
       NWT REQUIRED            3 OUTER ITERATIONS 
       AND A TOTAL OF          5 INNER ITERATIONS.
    ------------------------------------------------

 NO OUTPUT CONTROL FOR STRESS PERIOD   14   TIME STEP   13
 
 SOLVING FOR HEAD 
                                                   Max.-Head-Change                         Max.-Flux-Residual
  Residual-Control   Outer-Iter.   Inner-Iter.     Column Row Layer    Maximum-Head-Change  Column Row Layer    Maximum-Flux-Residual          L2-NORM 
          0                 1           2             4    7     1       0.2437142400E-02       4    7    1         0.1280080778E+00      0.3365545957E+00
          0                 2           2             4    7     1      -0.2370676355E-03       4    7    1        -0.1280081722E-01      0.3363129308E-01
          0                 3           1             4    7     1       0.1614342564E-04       4    7    1         0.8960574901E-03      0.2351974531E-02

    ------------------------------------------------
       NWT REQUIRED            3 OUTER ITERATIONS 
       AND A TOTAL OF          5 INNER ITERATIONS.
    ------------------------------------------------

 NO OUTPUT CONTROL FOR STRESS PERIOD   14   TIME STEP   14
 
 SOLVING FOR HEAD 
                                                   Max.-Head-Change                         Max.-Flux-Residual
  Residual-Control   Outer-Iter.   Inner-Iter.     Column Row Layer    Maximum-Head-Change  Column Row Layer    Maximum-Flux-Residual          L2-NORM 
          0                 1           2             4    7     1       0.2411028894E-02       4    7    1         0.1266303031E+00      0.3333125922E+00
          0                 2           2             4    7     1      -0.2345274998E-03       4    7    1        -0.1266303950E-01      0.3330944859E-01
          0                 3           1             4    7     1       0.1597045180E-04       4    7    1         0.8864130577E-03      0.2329624790E-02

    ------------------------------------------------
       NWT REQUIRED            3 OUTER ITERATIONS 
       AND A TOTAL OF          5 INNER ITERATIONS.
    ------------------------------------------------

 NO OUTPUT CONTROL FOR STRESS PERIOD   14   TIME STEP   15
 
 SOLVING FOR HEAD 
                                                   Max.-Head-Change                         Max.-Flux-Residual
  Residual-Control   Outer-Iter.   Inner-Iter.     Column Row Layer    Maximum-Head-Change  Column Row Layer    Maximum-Flux-Residual          L2-NORM 
          0                 1           2             4    7     1       0.2385368593E-02       4    7    1         0.1252763444E+00      0.3301690792E+00
          0                 2           2             4    7     1      -0.2320314492E-03       4    7    1        -0.1252764341E-01      0.3299754721E-01
          0                 3           1             4    7     1       0.1580048039E-04       4    7    1         0.8769353453E-03      0.2308022260E-02

    ------------------------------------------------
       NWT REQUIRED            3 OUTER ITERATIONS 
       AND A TOTAL OF          5 INNER ITERATIONS.
    ------------------------------------------------

 NO OUTPUT CONTROL FOR STRESS PERIOD   14   TIME STEP   16
 
 SOLVING FOR HEAD 
                                                   Max.-Head-Change                         Max.-Flux-Residual
  Residual-Control   Outer-Iter.   Inner-Iter.     Column Row Layer    Maximum-Head-Change  Column Row Layer    Maximum-Flux-Residual          L2-NORM 
          0                 1           2             4    7     1       0.2360142710E-02       4    7    1         0.1239458841E+00      0.3270993988E+00
          0                 2           2             4    7     1      -0.2295776551E-03       4    7    1        -0.1239459717E-01      0.3269263333E-01
          0                 3           1             4    7     1       0.1563338575E-04       4    7    1         0.8676220864E-03      0.2286877955E-02

    ------------------------------------------------
       NWT REQUIRED            3 OUTER ITERATIONS 
       AND A TOTAL OF          5 INNER ITERATIONS.
    ------------------------------------------------

 NO OUTPUT CONTROL FOR STRESS PERIOD   14   TIME STEP   17
 
 SOLVING FOR HEAD 
                                                   Max.-Head-Change                         Max.-Flux-Residual
  Residual-Control   Outer-Iter.   Inner-Iter.     Column Row Layer    Maximum-Head-Change  Column Row Layer    Maximum-Flux-Residual          L2-NORM 
          0                 1           2             4    7     1       0.2335077241E-02       4    7    1         0.1226231332E+00      0.3241205988E+00
          0                 2           2             4    7     1      -0.2271394654E-03       4    7    1        -0.1226232185E-01      0.3239649134E-01
          0                 3           1             4    7     1       0.1546735424E-04       4    7    1         0.8583628151E-03      0.2266405373E-02

    ------------------------------------------------
       NWT REQUIRED            3 OUTER ITERATIONS 
       AND A TOTAL OF          5 INNER ITERATIONS.
    ------------------------------------------------

 NO OUTPUT CONTROL FOR STRESS PERIOD   14   TIME STEP   18
 
 SOLVING FOR HEAD 
                                                   Max.-Head-Change                         Max.-Flux-Residual
  Residual-Control   Outer-Iter.   Inner-Iter.     Column Row Layer    Maximum-Head-Change  Column Row Layer    Maximum-Flux-Residual          L2-NORM 
          0                 1           2             4    7     1       0.2310715077E-02       4    7    1         0.1213383289E+00      0.3212137462E+00
          0                 2           2             4    7     1      -0.2247696883E-03       4    7    1        -0.1213384123E-01      0.3210746604E-01
          0                 3           1             4    7     1       0.1530598165E-04       4    7    1         0.8493691917E-03      0.2246165314E-02

    ------------------------------------------------
       NWT REQUIRED            3 OUTER ITERATIONS 
       AND A TOTAL OF          5 INNER ITERATIONS.
    ------------------------------------------------

 NO OUTPUT CONTROL FOR STRESS PERIOD   14   TIME STEP   19
 
 SOLVING FOR HEAD 
                                                   Max.-Head-Change                         Max.-Flux-Residual
  Residual-Control   Outer-Iter.   Inner-Iter.     Column Row Layer    Maximum-Head-Change  Column Row Layer    Maximum-Flux-Residual          L2-NORM 
          0                 1           2             4    7     1       0.2286496685E-02       4    7    1         0.1200603607E+00      0.3183859635E+00
          0                 2           2             4    7     1      -0.2224138960E-03       4    7    1        -0.1200604421E-01      0.3182599823E-01
          0                 3           1             4    7     1       0.1514556048E-04       4    7    1         0.8404233663E-03      0.2226638847E-02

    ------------------------------------------------
       NWT REQUIRED            3 OUTER ITERATIONS 
       AND A TOTAL OF          5 INNER ITERATIONS.
    ------------------------------------------------

 NO OUTPUT CONTROL FOR STRESS PERIOD   14   TIME STEP   20
 
 SOLVING FOR HEAD 
                                                   Max.-Head-Change                         Max.-Flux-Residual
  Residual-Control   Outer-Iter.   Inner-Iter.     Column Row Layer    Maximum-Head-Change  Column Row Layer    Maximum-Flux-Residual          L2-NORM 
          0                 1           2             4    7     1       0.2262686884E-02       4    7    1         0.1188046619E+00      0.3156104666E+00
          0                 2           2             4    7     1      -0.2200978485E-03       4    7    1        -0.1188047410E-01      0.3154960555E-01
          0                 3           1             4    7     1       0.1498784662E-04       4    7    1         0.8316334752E-03      0.2207492083E-02

    ------------------------------------------------
       NWT REQUIRED            3 OUTER ITERATIONS 
       AND A TOTAL OF          5 INNER ITERATIONS.
    ------------------------------------------------

 NO OUTPUT CONTROL FOR STRESS PERIOD   14   TIME STEP   21
 
 SOLVING FOR HEAD 
                                                   Max.-Head-Change                         Max.-Flux-Residual
  Residual-Control   Outer-Iter.   Inner-Iter.     Column Row Layer    Maximum-Head-Change  Column Row Layer    Maximum-Flux-Residual          L2-NORM 
          0                 1           2             4    7     1       0.2239285223E-02       4    7    1         0.1175701479E+00      0.3128992279E+00
          0                 2           2             4    7     1      -0.2178215023E-03       4    7    1        -0.1175702251E-01      0.3127973439E-01
          0                 3           1             4    7     1       0.1483283557E-04       4    7    1         0.8229918567E-03      0.2188649698E-02

    ------------------------------------------------
       NWT REQUIRED            3 OUTER ITERATIONS 
       AND A TOTAL OF          5 INNER ITERATIONS.
    ------------------------------------------------

 NO OUTPUT CONTROL FOR STRESS PERIOD   14   TIME STEP   22
 
 SOLVING FOR HEAD 
                                                   Max.-Head-Change                         Max.-Flux-Residual
  Residual-Control   Outer-Iter.   Inner-Iter.     Column Row Layer    Maximum-Head-Change  Column Row Layer    Maximum-Flux-Residual          L2-NORM 
          0                 1           2             4    7     1       0.2216001257E-02       4    7    1         0.1163419806E+00      0.3102369309E+00
          0                 2           2             4    7     1      -0.2155566050E-03       4    7    1        -0.1163420562E-01      0.3101429196E-01
          0                 3           1             4    7     1       0.1467860483E-04       4    7    1         0.8143946889E-03      0.2170122833E-02

    ------------------------------------------------
       NWT REQUIRED            3 OUTER ITERATIONS 
       AND A TOTAL OF          5 INNER ITERATIONS.
    ------------------------------------------------

 NO OUTPUT CONTROL FOR STRESS PERIOD   14   TIME STEP   23
 
 SOLVING FOR HEAD 
                                                   Max.-Head-Change                         Max.-Flux-Residual
  Residual-Control   Outer-Iter.   Inner-Iter.     Column Row Layer    Maximum-Head-Change  Column Row Layer    Maximum-Flux-Residual          L2-NORM 
          0                 1           2             4    7     1       0.2193391822E-02       4    7    1         0.1151495456E+00      0.3076401309E+00
          0                 2           2             4    7     1      -0.2133573203E-03       4    7    1        -0.1151496192E-01      0.3075559467E-01
          0                 3           1             4    7     1       0.1452884129E-04       4    7    1         0.8060476025E-03      0.2152151843E-02

    ------------------------------------------------
       NWT REQUIRED            3 OUTER ITERATIONS 
       AND A TOTAL OF          5 INNER ITERATIONS.
    ------------------------------------------------

 NO OUTPUT CONTROL FOR STRESS PERIOD   14   TIME STEP   24
 
 SOLVING FOR HEAD 
                                                   Max.-Head-Change                         Max.-Flux-Residual
  Residual-Control   Outer-Iter.   Inner-Iter.     Column Row Layer    Maximum-Head-Change  Column Row Layer    Maximum-Flux-Residual          L2-NORM 
          0                 1           2             4    7     1       0.2170888711E-02       4    7    1         0.1139624543E+00      0.3050969824E+00
          0                 2           2             4    7     1      -0.2111683789E-03       4    7    1        -0.1139625262E-01      0.3050207400E-01
          0                 3           1             4    7     1       0.1437978281E-04       4    7    1         0.7977379605E-03      0.2134438629E-02

    ------------------------------------------------
       NWT REQUIRED            3 OUTER ITERATIONS 
       AND A TOTAL OF          5 INNER ITERATIONS.
    ------------------------------------------------

 NO OUTPUT CONTROL FOR STRESS PERIOD   14   TIME STEP   25
 
 SOLVING FOR HEAD 
                                                   Max.-Head-Change                         Max.-Flux-Residual
  Residual-Control   Outer-Iter.   Inner-Iter.     Column Row Layer    Maximum-Head-Change  Column Row Layer    Maximum-Flux-Residual          L2-NORM 
          0                 1           2             4    7     1       0.2148768056E-02       4    7    1         0.1127956909E+00      0.3025946281E+00
          0                 2           2             4    7     1      -0.2090166401E-03       4    7    1        -0.1127957612E-01      0.3025201217E-01
          0                 3           1             4    7     1       0.1423325768E-04       4    7    1         0.7895706090E-03      0.2116579749E-02

    ------------------------------------------------
       NWT REQUIRED            3 OUTER ITERATIONS 
       AND A TOTAL OF          5 INNER ITERATIONS.
    ------------------------------------------------

 NO OUTPUT CONTROL FOR STRESS PERIOD   14   TIME STEP   26
 
 SOLVING FOR HEAD 
                                                   Max.-Head-Change                         Max.-Flux-Residual
  Residual-Control   Outer-Iter.   Inner-Iter.     Column Row Layer    Maximum-Head-Change  Column Row Layer    Maximum-Flux-Residual          L2-NORM 
          0                 1           2             4    7     1       0.2127020527E-02       4    7    1         0.1116487573E+00      0.3001431461E+00
          0                 2           2             4    7     1      -0.2069011958E-03       4    7    1        -0.1116488258E-01      0.3000798631E-01
          0                 3           1             4    7     1       0.1408920341E-04       4    7    1         0.7815420545E-03      0.2100171045E-02

    ------------------------------------------------
       NWT REQUIRED            3 OUTER ITERATIONS 
       AND A TOTAL OF          5 INNER ITERATIONS.
    ------------------------------------------------

 NO OUTPUT CONTROL FOR STRESS PERIOD   14   TIME STEP   27
 
 SOLVING FOR HEAD 
                                                   Max.-Head-Change                         Max.-Flux-Residual
  Residual-Control   Outer-Iter.   Inner-Iter.     Column Row Layer    Maximum-Head-Change  Column Row Layer    Maximum-Flux-Residual          L2-NORM 
          0                 1           2             4    7     1       0.2105629948E-02       4    7    1         0.1105211699E+00      0.2977236517E+00
          0                 2           2             4    7     1      -0.2048204738E-03       4    7    1        -0.1105212369E-01      0.2976646416E-01
          0                 3           1             4    7     1       0.1394751423E-04       4    7    1         0.7736489465E-03      0.2083169674E-02

    ------------------------------------------------
       NWT REQUIRED            3 OUTER ITERATIONS 
       AND A TOTAL OF          5 INNER ITERATIONS.
    ------------------------------------------------

 NO OUTPUT CONTROL FOR STRESS PERIOD   14   TIME STEP   28
 
 SOLVING FOR HEAD 
                                                   Max.-Head-Change                         Max.-Flux-Residual
  Residual-Control   Outer-Iter.   Inner-Iter.     Column Row Layer    Maximum-Head-Change  Column Row Layer    Maximum-Flux-Residual          L2-NORM 
          0                 1           2             4    7     1       0.2084597213E-02       4    7    1         0.1094120899E+00      0.2953649962E+00
          0                 2           2             4    7     1      -0.2027745595E-03       4    7    1        -0.1094121553E-01      0.2953129510E-01
          0                 3           1             4    7     1       0.1380819508E-04       4    7    1         0.7658853515E-03      0.2066885789E-02

    ------------------------------------------------
       NWT REQUIRED            3 OUTER ITERATIONS 
       AND A TOTAL OF          5 INNER ITERATIONS.
    ------------------------------------------------

 NO OUTPUT CONTROL FOR STRESS PERIOD   14   TIME STEP   29
 
 SOLVING FOR HEAD 
                                                   Max.-Head-Change                         Max.-Flux-Residual
  Residual-Control   Outer-Iter.   Inner-Iter.     Column Row Layer    Maximum-Head-Change  Column Row Layer    Maximum-Flux-Residual          L2-NORM 
          0                 1           2             4    7     1       0.2063641485E-02       4    7    1         0.1083067484E+00      0.2930304723E+00
          0                 2           2             4    7     1      -0.2007361366E-03       4    7    1        -0.1083068123E-01      0.2929810422E-01
          0                 3           1             4    7     1       0.1366938574E-04       4    7    1         0.7581479508E-03      0.2050461588E-02

    ------------------------------------------------
       NWT REQUIRED            3 OUTER ITERATIONS 
       AND A TOTAL OF          5 INNER ITERATIONS.
    ------------------------------------------------

 NO OUTPUT CONTROL FOR STRESS PERIOD   14   TIME STEP   30



 STREAM LISTING     PERIOD     14   STEP       30

 LAYER ROW COL. STREAM  RCH.  FLOW INTO     FLOW TO   FLOW OUT OF   OVRLND.     DIRECT     STREAM       STREAM     STREAM     STREAM   STREAMBED  STREAMBED
                SEG.NO.  NO.  STRM. RCH.    AQUIFER    STRM. RCH.    RUNOFF     PRECIP       ET          HEAD       DEPTH      WIDTH   CONDCTNC.   GRADIENT

   1    1    1     1     1    1.4250E+01  1.8169E-01   1.4069E+01  0.000E+00  0.000E+00  0.000E+00  1.09404E+03  9.953E-01  1.011E+01  4.548E-02  1.332E+00
   1    2    2     1     2    1.4069E+01  2.7999E-01   1.3789E+01  0.000E+00  0.000E+00  0.000E+00  1.08905E+03  9.906E-01  1.002E+01  7.016E-02  1.330E+00
   1    3    3     1     3    1.3789E+01  2.3745E-01   1.3551E+01  0.000E+00  0.000E+00  0.000E+00  1.08340E+03  9.853E-01  9.930E+00  5.958E-02  1.328E+00
   1    3    4     1     4    1.3551E+01  2.1755E-01   1.3334E+01  0.000E+00  0.000E+00  0.000E+00  1.07839E+03  9.805E-01  9.848E+00  5.465E-02  1.327E+00
   1    4    5     2     1    1.1334E+01  2.9214E-01   1.1041E+01  0.000E+00  0.000E+00  0.000E+00  1.07268E+03  7.454E-01  1.200E+01  7.800E-02  1.248E+00
   1    5    6     2     2    1.1041E+01  2.2410E-01   1.0817E+01  0.000E+00  0.000E+00  0.000E+00  1.06724E+03  7.350E-01  1.200E+01  6.000E-02  1.245E+00
   1    6    6     2     3    1.0817E+01  2.2356E-01   1.0594E+01  0.000E+00  0.000E+00  0.000E+00  1.06252E+03  7.260E-01  1.200E+01  6.000E-02  1.242E+00
   1    7    6     2     4    1.0594E+01  2.2301E-01   1.0371E+01  0.000E+00  0.000E+00  0.000E+00  1.05779E+03  7.168E-01  1.200E+01  6.000E-02  1.239E+00
   1    8    6     2     5    1.0371E+01  2.2246E-01   1.0148E+01  0.000E+00  0.000E+00  0.000E+00  1.05307E+03  7.077E-01  1.200E+01  6.000E-02  1.236E+00
   1    3    5     3     1    2.0000E+00  2.8252E-01   1.7175E+00  0.000E+00  0.000E+00  0.000E+00  1.07555E+03  1.909E+00  9.636E+00  7.227E-02  1.955E+00
   1    3    6     3     2    1.7175E+00  2.4905E-01   1.4684E+00  0.000E+00  0.000E+00  0.000E+00  1.07264E+03  1.727E+00  8.909E+00  6.682E-02  1.864E+00
   1    3    7     3     3    1.4684E+00  1.9718E-01   1.2712E+00  0.000E+00  0.000E+00  0.000E+00  1.06987E+03  1.555E+00  8.218E+00  5.547E-02  1.777E+00
   1    4    8     3     4    1.2712E+00  2.2567E-01   1.0456E+00  0.000E+00  0.000E+00  0.000E+00  1.06682E+03  1.364E+00  7.455E+00  6.709E-02  1.682E+00
   1    5    8     3     5    1.0456E+00  1.5790E-01   8.8768E-01  0.000E+00  0.000E+00  0.000E+00  1.06362E+03  1.164E+00  6.655E+00  4.991E-02  1.582E+00
   1    6    8     3     6    8.8768E-01  5.5980E-02   8.3170E-01  0.000E+00  0.000E+00  0.000E+00  1.06158E+03  1.036E+00  6.145E+00  1.844E-02  1.518E+00
   1    5   10     4     1    1.0000E+01  9.0919E-02   9.9091E+00  0.000E+00  0.000E+00  0.000E+00  1.07836E+03  6.368E-01  1.000E+01  2.500E-02  1.212E+00
   1    5    9     4     2    9.9091E+00  1.8158E-01   9.7275E+00  0.000E+00  0.000E+00  0.000E+00  1.07154E+03  6.315E-01  1.000E+01  5.000E-02  1.211E+00
   1    6    8     4     3    9.7275E+00  1.2689E-01   9.6006E+00  0.000E+00  0.000E+00  0.000E+00  1.06381E+03  6.256E-01  1.000E+01  3.500E-02  1.209E+00
   1    6    8     5     1    1.0432E+01  2.2686E-01   1.0205E+01  0.000E+00  0.000E+00  0.000E+00  1.05868E+03  6.790E-01  1.542E+01  6.166E-02  1.226E+00
   1    7    7     5     2    1.0205E+01  2.7894E-01   9.9265E+00  0.000E+00  0.000E+00  0.000E+00  1.05417E+03  6.732E-01  1.519E+01  7.594E-02  1.224E+00
   1    8    7     5     3    9.9265E+00  1.9221E-01   9.7343E+00  0.000E+00  0.000E+00  0.000E+00  1.04992E+03  6.676E-01  1.497E+01  5.241E-02  1.223E+00
   1    8    6     5     4    9.7343E+00  1.3577E-01   9.5985E+00  0.000E+00  0.000E+00  0.000E+00  1.04691E+03  6.637E-01  1.482E+01  3.706E-02  1.221E+00
   1    9    6     6     1    1.9747E+01  2.4336E-01   1.9503E+01  0.000E+00  0.000E+00  0.000E+00  1.04378E+03  1.056E+00  1.200E+01  6.000E-02  1.352E+00
   1   10    7     6     2    1.9503E+01  2.4289E-01   1.9261E+01  0.000E+00  0.000E+00  0.000E+00  1.03923E+03  1.048E+00  1.200E+01  6.000E-02  1.349E+00
   1   11    7     6     3    1.9261E+01  2.4241E-01   1.9018E+01  0.000E+00  0.000E+00  0.000E+00  1.03468E+03  1.040E+00  1.200E+01  6.000E-02  1.347E+00
   1   12    7     6     4    1.9018E+01  2.4194E-01   1.8776E+01  0.000E+00  0.000E+00  0.000E+00  1.03012E+03  1.032E+00  1.200E+01  6.000E-02  1.344E+00
   1   13    7     6     5    1.8776E+01 -4.2750E-02   1.8819E+01  0.000E+00  0.000E+00  0.000E+00  1.02694E+03  1.029E+00  1.200E+01  2.400E-01 -5.937E-02
   1   14    9     7     1    1.5000E+02  1.3360E+00   1.4866E+02  0.000E+00  0.000E+00  0.000E+00  1.03987E+03  2.288E+00  5.529E+01  5.593E-01  7.962E-01
   1   13    8     7     2    1.4866E+02  1.8222E+00   1.4684E+02  0.000E+00  0.000E+00  0.000E+00  1.03478E+03  2.279E+00  5.526E+01  6.148E-01  9.880E-01
   1   13    7     7     3    1.4684E+02  1.4373E+00   1.4540E+02  0.000E+00  0.000E+00  0.000E+00  1.02969E+03  2.271E+00  5.522E+01  5.585E-01  8.579E-01
   1   13    6     8     1    1.6422E+02  8.5215E-01   1.6337E+02  0.000E+00  0.000E+00  0.000E+00  1.02479E+03  2.911E+00  4.221E+01  4.302E-01  6.603E-01
   1   13    5     8     2    1.6337E+02  1.1318E-01   1.6326E+02  0.000E+00  0.000E+00  0.000E+00  1.01853E+03  2.908E+00  4.217E+01  4.297E-01  8.780E-02
   1   13    4     8     3    1.6326E+02 -2.6484E+00   1.6591E+02  0.000E+00  0.000E+00  0.000E+00  1.01229E+03  2.917E+00  4.229E+01  4.310E+00 -2.048E-01
   1   13    3     8     4    1.6591E+02 -3.7460E+00   1.6965E+02  0.000E+00  0.000E+00  0.000E+00  1.00606E+03  2.938E+00  4.260E+01  4.341E+00 -2.877E-01
   1   13    2     8     5    1.6965E+02 -2.6029E+00   1.7226E+02  0.000E+00  0.000E+00  0.000E+00  9.99833E+02  2.958E+00  4.290E+01  4.371E+00 -1.985E-01
   1   13    1     8     6    1.7226E+02 -1.9919E+00   1.7425E+02  0.000E+00  0.000E+00  0.000E+00  9.94848E+02  2.973E+00  4.311E+01  2.636E+00 -2.519E-01
   1    8    6     9     1    0.0000E+00  0.0000E+00   0.0000E+00  0.000E+00  0.000E+00  0.000E+00  1.07875E+03  0.000E+00  4.000E+00  0.000E+00  1.000E+00
   1    8    5     9     2    0.0000E+00  0.0000E+00   0.0000E+00  0.000E+00  0.000E+00  0.000E+00  1.07825E+03  0.000E+00  4.000E+00  0.000E+00  1.000E+00





UNSATURATED ZONE PACKAGE VOLUMETRIC BUDGET FOR  TIME STEP    30 STRESS PERIOD   14
  ------------------------------------------------------------------------------



     CUMULATIVE VOLUMES      L**3       RATES FOR THIS TIME STEP      L**3/T
     ------------------                 ------------------------

           IN:                                      IN:
           ---                                      ---
        INFILTRATION =   437124829.9872          INFILTRATION =           0.8475

          OUT:                                     OUT:
          ----                                     ----
              UZF ET =   432000478.3130                UZF ET =           0.7500
        UZF RECHARGE =       73224.0000          UZF RECHARGE =       0.0000E+00

            IN - OUT =     5051127.6742              IN - OUT =       9.7500E-02

          STORAGE:                                 STORAGE:
          --------                                 --------
      STORAGE CHANGE =     5051330.6258        STORAGE CHANGE =       9.7500E-02

 PERCENT DISCREPANCY IS DIFFERENCE BETWEEN IN-OUT MINUS CHANGE IN STORAGE
 DIVIDED BY THE AVERAGE OF IN AND OUT TIMES 100

 PERCENT DISCREPANCY =          -0.00     PERCENT DISCREPANCY =           0.00






1
  VOLUMETRIC BUDGET FOR AGRICULTURAL FIELDS AT  END OF TIME STEP   30, STRESS PERIOD  14
  ------------------------------------------------------------------------------

     CUMULATIVE VOLUMES      L**3       RATES FOR THIS TIME STEP      L**3/T
     ------------------                 ------------------------

           IN:                                      IN:
           ---                                      ---
               AG WELLS  =    49128108.0000                 AG WELLS  =           0.0000
      DIVERSION SEGMENTS =   358973504.0000        DIVERSION SEGMENTS =           0.0000
       IRRIGATION PONDS  =           0.0000         IRRIGATION PONDS  =           0.0000
           GW IRRIGATION =           0.0000             GW IRRIGATION =           0.0000
           SW IRRIGATION =           0.0000             SW IRRIGATION =           0.0000
        SYSTEM LOSSES GW =           0.0000          SYSTEM LOSSES GW =           0.0000
        SYSTEM LOSSES SW =           0.0000          SYSTEM LOSSES SW =           0.0000

                TOTAL IN =   408101600.0000                  TOTAL IN =           0.0000

          OUT:                                     OUT:
          ----                                     ----
               AG WELLS  =           0.0000                 AG WELLS  =           0.0000
      DIVERSION SEGMENTS =           0.0000        DIVERSION SEGMENTS =           0.0000
       IRRIGATION PONDS  =           0.0000         IRRIGATION PONDS  =           0.0000
           GW IRRIGATION =    49128108.0000             GW IRRIGATION =           0.0000
           SW IRRIGATION =   358980608.0000             SW IRRIGATION =           0.0000
        SYSTEM LOSSES GW =           0.0000          SYSTEM LOSSES GW =           0.0000
        SYSTEM LOSSES SW =           0.0000          SYSTEM LOSSES SW =           0.0000

               TOTAL OUT =   408108704.0000                 TOTAL OUT =           0.0000

                IN - OUT =       -7104.0000                  IN - OUT =           0.0000

     PERCENT DISCREPANCY =          -0.00         PERCENT DISCREPANCY =           0.00



1
  VOLUMETRIC BUDGET FOR ENTIRE MODEL AT END OF TIME STEP   30, STRESS PERIOD  14
  ------------------------------------------------------------------------------

     CUMULATIVE VOLUMES      L**3       RATES FOR THIS TIME STEP      L**3/T
     ------------------                 ------------------------

           IN:                                      IN:
           ---                                      ---
             STORAGE     =    89452304.0000               STORAGE     =           1.0641
       CONSTANT HEAD     =           0.0000         CONSTANT HEAD     =           0.0000
     HEAD DEP BOUNDS     =     9794200.0000       HEAD DEP BOUNDS     =           0.2858
      STREAM LEAKAGE     =   407713120.0000        STREAM LEAKAGE     =          11.0348
        UZF RECHARGE     =       73223.9531          UZF RECHARGE     =           0.0000
               GW ET     =           0.0000                 GW ET     =           0.0000
     SURFACE LEAKAGE     =           0.0000       SURFACE LEAKAGE     =           0.0000
           AG WELLS      =           0.0000             AG WELLS      =           0.0000

                TOTAL IN =   507032832.0000                  TOTAL IN =          12.3847

          OUT:                                     OUT:
          ----                                     ----
             STORAGE     =    74071336.0000               STORAGE     =           1.0637
       CONSTANT HEAD     =           0.0000         CONSTANT HEAD     =           0.0000
     HEAD DEP BOUNDS     =     9961879.0000       HEAD DEP BOUNDS     =           0.2889
      STREAM LEAKAGE     =   372335104.0000        STREAM LEAKAGE     =          11.0320
        UZF RECHARGE     =           0.0000          UZF RECHARGE     =           0.0000
               GW ET     =     1538617.0000                 GW ET     =           0.0000
     SURFACE LEAKAGE     =           0.0000       SURFACE LEAKAGE     =           0.0000
           AG WELLS      =    49128108.0000             AG WELLS      =           0.0000

               TOTAL OUT =   507035040.0000                 TOTAL OUT =          12.3847

                IN - OUT =       -2208.0000                  IN - OUT =       4.7684E-06

     PERCENT DISCREPANCY =          -0.00         PERCENT DISCREPANCY =           0.00






         TIME SUMMARY AT END OF TIME STEP   30 IN STRESS PERIOD   14
                    SECONDS     MINUTES      HOURS       DAYS        YEARS
                    -----------------------------------------------------------
   TIME STEP LENGTH  87667.      1461.1      24.352      1.0147     2.77799E-03
 STRESS PERIOD TIME 2.63000E+06  43833.      730.56      30.440     8.33397E-02
         TOTAL TIME 3.42763E+07 5.71272E+05  9521.2      396.72      1.0862    
1
1
                            STRESS PERIOD NO.   15, LENGTH =   2630000.    
                            -----------------------------------------------

                              NUMBER OF TIME STEPS =    30

                               MULTIPLIER FOR DELT =     1.000

                            INITIAL TIME STEP SIZE =   87666.66    

 REUSING NON-PARAMETER GHB CELLS FROM LAST STRESS PERIOD

      2 GHB CELLS

 REUSING STREAM SEGMENT DATA FROM LAST STRESS PERIOD



            AREAL INFILTRATION RATE
 READING ON UNIT   19 WITH FORMAT: (FREE)              

            1           2           3           4           5           6           7           8           9          10
 ........................................................................................................................
   1   1.0000E-10  2.0000E-10   0.000       0.000       0.000       0.000       0.000       0.000       0.000       0.000    
   2   2.0000E-10  1.0000E-10  2.0000E-10   0.000       0.000      8.0000E-10  8.0000E-10  5.0000E-10   0.000       0.000    
   3    0.000      5.0000E-10  1.0000E-10  1.0000E-10  8.0000E-10  8.0000E-10  5.0000E-10  5.0000E-10   0.000       0.000    
   4   8.0000E-10  5.0000E-10  1.0000E-10  1.0000E-10  1.0000E-10  1.0000E-10  1.0000E-10  1.0000E-10  2.0000E-10   0.000    
   5   8.0000E-10  5.0000E-10  1.0000E-10  1.0000E-10  1.0000E-10  1.0000E-10  1.0000E-10  1.0000E-10  1.0000E-10  1.0000E-10
   6   8.0000E-10  5.0000E-10  5.0000E-10  2.0000E-10  2.0000E-10  1.0000E-10  1.0000E-10  1.0000E-10  1.0000E-10  5.0000E-10
   7   8.0000E-10  5.0000E-10  5.0000E-10  2.0000E-10  2.0000E-10  1.0000E-10  1.0000E-10  2.0000E-10  2.0000E-10   0.000    
   8    0.000      5.0000E-10  5.0000E-10  2.0000E-10  2.0000E-10  1.0000E-10  1.0000E-10  2.0000E-10  5.0000E-10   0.000    
   9    0.000      5.0000E-10  5.0000E-10  2.0000E-10  2.0000E-10  1.0000E-10  1.0000E-10  2.0000E-10  5.0000E-10   0.000    
  10    0.000      5.0000E-10  5.0000E-10  2.0000E-10  2.0000E-10  1.0000E-10  1.0000E-10  2.0000E-10  5.0000E-10  8.0000E-10
  11    0.000      1.0000E-10  1.0000E-10  1.0000E-10  1.0000E-10  1.0000E-10  1.0000E-10  2.0000E-10  5.0000E-10   0.000    
  12   1.0000E-10  1.0000E-10  1.0000E-10  1.0000E-10  1.0000E-10  1.0000E-10  1.0000E-10  1.0000E-10  2.0000E-10   0.000    
  13   1.0000E-10  1.0000E-10  2.0000E-10  2.0000E-10  2.0000E-10  2.0000E-10  2.0000E-10  1.0000E-10  1.0000E-10   0.000    
  14    0.000      2.0000E-10  5.0000E-10  5.0000E-10  5.0000E-10  5.0000E-10  5.0000E-10  2.0000E-10  1.0000E-10   0.000    
  15    0.000       0.000      8.0000E-10  8.0000E-10  8.0000E-10  8.0000E-10   0.000       0.000       0.000       0.000    

                  ET RATE =  5.000000E-10

 USING ET EXTINCTION DEPTH FROM PREVIOUS STRESS PERIOD. CURRENT PERIOD IS:      15

 USING EXTINCTION WATER CONTENT FROM PREVIOUS STRESS PERIOD. CURRENT PERIOD IS:      15

 USING AIR ENTRY PRESSURE FROM PREVIOUS STRESS PERIOD. CURRENT PERIOD IS:      15

 USING ROOT PRESSURE HEAD FROM PREVIOUS STRESS PERIOD. CURRENT PERIOD IS:      15

 USING ROOT ACTIVITY FROM PREVIOUS STRESS PERIOD. CURRENT PERIOD IS:      15

 PROCESSING AG STRESS PERIOD DATA

 READING AG STRESS PERIOD DATA

 READING IRRIGATION SEGMENT

 READING IRRIGATION WELL

 READING SUPPLEMENTAL WELL

 NO IRRPOND OR REUSING IRRPOND DATA FROM LAST STRESS PERIOD

 END PROCESSING AG STRESS PERIOD DATA OPTIONS
 
 SOLVING FOR HEAD 
                                                   Max.-Head-Change                         Max.-Flux-Residual
  Residual-Control   Outer-Iter.   Inner-Iter.     Column Row Layer    Maximum-Head-Change  Column Row Layer    Maximum-Flux-Residual          L2-NORM 
          0                 1           2             4    7     1       0.2043305890E-02       4    7    1         0.1072350306E+00      0.2907375207E+00
          0                 2           2             4    7     1      -0.1987580355E-03       4    7    1        -0.1072350930E-01      0.2906917621E-01
          0                 3           1             4    7     1       0.1353468457E-04       4    7    1         0.7506459142E-03      0.2034463793E-02

    ------------------------------------------------
       NWT REQUIRED            3 OUTER ITERATIONS 
       AND A TOTAL OF          5 INNER ITERATIONS.
    ------------------------------------------------

 NO OUTPUT CONTROL FOR STRESS PERIOD   15   TIME STEP    1
 
 SOLVING FOR HEAD 
                                                   Max.-Head-Change                         Max.-Flux-Residual
  Residual-Control   Outer-Iter.   Inner-Iter.     Column Row Layer    Maximum-Head-Change  Column Row Layer    Maximum-Flux-Residual          L2-NORM 
          0                 1           2             4    7     1       0.2023038264E-02       4    7    1         0.1061658349E+00      0.2862262042E+00
          0                 2           2             4    7     1      -0.1967865460E-03       4    7    1        -0.1061658957E-01      0.2862137653E-01
          0                 3           1             4    7     1       0.1340043355E-04       4    7    1         0.7431615413E-03      0.2003407161E-02

    ------------------------------------------------
       NWT REQUIRED            3 OUTER ITERATIONS 
       AND A TOTAL OF          5 INNER ITERATIONS.
    ------------------------------------------------

 NO OUTPUT CONTROL FOR STRESS PERIOD   15   TIME STEP    2
 
 SOLVING FOR HEAD 
                                                   Max.-Head-Change                         Max.-Flux-Residual
  Residual-Control   Outer-Iter.   Inner-Iter.     Column Row Layer    Maximum-Head-Change  Column Row Layer    Maximum-Flux-Residual          L2-NORM 
          0                 1           2             4    7     1       0.2003122844E-02       4    7    1         0.1051149790E+00      0.2851864785E+00
          0                 2           2             4    7     1      -0.1948493166E-03       4    7    1        -0.1051150386E-01      0.2850861346E-01
          0                 3           1             4    7     1       0.1326851518E-04       4    7    1         0.7358055263E-03      0.1994669578E-02

    ------------------------------------------------
       NWT REQUIRED            3 OUTER ITERATIONS 
       AND A TOTAL OF          5 INNER ITERATIONS.
    ------------------------------------------------

 NO OUTPUT CONTROL FOR STRESS PERIOD   15   TIME STEP    3
 
 SOLVING FOR HEAD 
                                                   Max.-Head-Change                         Max.-Flux-Residual
  Residual-Control   Outer-Iter.   Inner-Iter.     Column Row Layer    Maximum-Head-Change  Column Row Layer    Maximum-Flux-Residual          L2-NORM 
          0                 1           2             4    7     1       0.1983546802E-02       4    7    1         0.1040823847E+00      0.2827571441E+00
          0                 2           2             4    7     1      -0.1929450996E-03       4    7    1        -0.1040824428E-01      0.2826741906E-01
          0                 3           1             4    7     1       0.1313884544E-04       4    7    1         0.7285773659E-03      0.1977915498E-02

    ------------------------------------------------
       NWT REQUIRED            3 OUTER ITERATIONS 
       AND A TOTAL OF          5 INNER ITERATIONS.
    ------------------------------------------------

 NO OUTPUT CONTROL FOR STRESS PERIOD   15   TIME STEP    4
 
 SOLVING FOR HEAD 
                                                   Max.-Head-Change                         Max.-Flux-Residual
  Residual-Control   Outer-Iter.   Inner-Iter.     Column Row Layer    Maximum-Head-Change  Column Row Layer    Maximum-Flux-Residual          L2-NORM 
          0                 1           2             4    7     1       0.1964307902E-02       4    7    1         0.1030673868E+00      0.2804317948E+00
          0                 2           2             4    7     1      -0.1910736772E-03       4    7    1        -0.1030674436E-01      0.2803640808E-01
          0                 3           1             4    7     1       0.1301140824E-04       4    7    1         0.7214723569E-03      0.1961946742E-02

    ------------------------------------------------
       NWT REQUIRED            3 OUTER ITERATIONS 
       AND A TOTAL OF          5 INNER ITERATIONS.
    ------------------------------------------------

 NO OUTPUT CONTROL FOR STRESS PERIOD   15   TIME STEP    5
 
 SOLVING FOR HEAD 
                                                   Max.-Head-Change                         Max.-Flux-Residual
  Residual-Control   Outer-Iter.   Inner-Iter.     Column Row Layer    Maximum-Head-Change  Column Row Layer    Maximum-Flux-Residual          L2-NORM 
          0                 1           2             4    7     1       0.1945119928E-02       4    7    1         0.1020550536E+00      0.2781766832E+00
          0                 2           2             4    7     1      -0.1892072082E-03       4    7    1        -0.1020551089E-01      0.2781197282E-01
          0                 3           1             4    7     1       0.1288430878E-04       4    7    1         0.7143860144E-03      0.1946299282E-02

    ------------------------------------------------
       NWT REQUIRED            3 OUTER ITERATIONS 
       AND A TOTAL OF          5 INNER ITERATIONS.
    ------------------------------------------------

 NO OUTPUT CONTROL FOR STRESS PERIOD   15   TIME STEP    6
 
 SOLVING FOR HEAD 
                                                   Max.-Head-Change                         Max.-Flux-Residual
  Residual-Control   Outer-Iter.   Inner-Iter.     Column Row Layer    Maximum-Head-Change  Column Row Layer    Maximum-Flux-Residual          L2-NORM 
          0                 1           2             4    7     1       0.1926532285E-02       4    7    1         0.1010749924E+00      0.2760027165E+00
          0                 2           2             4    7     1      -0.1873991360E-03       4    7    1        -0.1010750466E-01      0.2759579736E-01
          0                 3           1             4    7     1       0.1276118590E-04       4    7    1         0.7075255867E-03      0.1931381877E-02

    ------------------------------------------------
       NWT REQUIRED            3 OUTER ITERATIONS 
       AND A TOTAL OF          5 INNER ITERATIONS.
    ------------------------------------------------

 NO OUTPUT CONTROL FOR STRESS PERIOD   15   TIME STEP    7
 
 SOLVING FOR HEAD 
                                                   Max.-Head-Change                         Max.-Flux-Residual
  Residual-Control   Outer-Iter.   Inner-Iter.     Column Row Layer    Maximum-Head-Change  Column Row Layer    Maximum-Flux-Residual          L2-NORM 
          0                 1           2             4    7     1       0.1907983748E-02       4    7    1         0.1000964260E+00      0.2738980163E+00
          0                 2           2             4    7     1      -0.1855948672E-03       4    7    1        -0.1000964789E-01      0.2738609038E-01
          0                 3           1             4    7     1       0.1263832171E-04       4    7    1         0.7006756055E-03      0.1916661383E-02

    ------------------------------------------------
       NWT REQUIRED            3 OUTER ITERATIONS 
       AND A TOTAL OF          5 INNER ITERATIONS.
    ------------------------------------------------

 NO OUTPUT CONTROL FOR STRESS PERIOD   15   TIME STEP    8
 
 SOLVING FOR HEAD 
                                                   Max.-Head-Change                         Max.-Flux-Residual
  Residual-Control   Outer-Iter.   Inner-Iter.     Column Row Layer    Maximum-Head-Change  Column Row Layer    Maximum-Flux-Residual          L2-NORM 
          0                 1           2             4    7     1       0.1889745643E-02       4    7    1         0.9913470306E-01      0.2718427819E+00
          0                 2           2             4    7     1      -0.1838207952E-03       4    7    1        -0.9913475483E-02      0.2718130922E-01
          0                 3           1             4    7     1       0.1251751396E-04       4    7    1         0.6939435320E-03      0.1902473979E-02

    ------------------------------------------------
       NWT REQUIRED            3 OUTER ITERATIONS 
       AND A TOTAL OF          5 INNER ITERATIONS.
    ------------------------------------------------

 NO OUTPUT CONTROL FOR STRESS PERIOD   15   TIME STEP    9
 
 SOLVING FOR HEAD 
                                                   Max.-Head-Change                         Max.-Flux-Residual
  Residual-Control   Outer-Iter.   Inner-Iter.     Column Row Layer    Maximum-Head-Change  Column Row Layer    Maximum-Flux-Residual          L2-NORM 
          0                 1           2             4    7     1       0.1872083554E-02       4    7    1         0.9820389173E-01      0.2698507478E+00
          0                 2           2             4    7     1      -0.1821027541E-03       4    7    1        -0.9820394226E-02      0.2698260794E-01
          0                 3           1             4    7     1       0.1240052211E-04       4    7    1         0.6874278724E-03      0.1888560977E-02

    ------------------------------------------------
       NWT REQUIRED            3 OUTER ITERATIONS 
       AND A TOTAL OF          5 INNER ITERATIONS.
    ------------------------------------------------

 NO OUTPUT CONTROL FOR STRESS PERIOD   15   TIME STEP   10
 
 SOLVING FOR HEAD 
                                                   Max.-Head-Change                         Max.-Flux-Residual
  Residual-Control   Outer-Iter.   Inner-Iter.     Column Row Layer    Maximum-Head-Change  Column Row Layer    Maximum-Flux-Residual          L2-NORM 
          0                 1           2             4    7     1       0.1854434128E-02       4    7    1         0.9727331400E-01      0.2679153583E+00
          0                 2           2             4    7     1      -0.1803859441E-03       4    7    1        -0.9727336344E-02      0.2678950029E-01
          0                 3           1             4    7     1       0.1228361308E-04       4    7    1         0.6809137803E-03      0.1875123029E-02

    ------------------------------------------------
       NWT REQUIRED            3 OUTER ITERATIONS 
       AND A TOTAL OF          5 INNER ITERATIONS.
    ------------------------------------------------

 NO OUTPUT CONTROL FOR STRESS PERIOD   15   TIME STEP   11
 
 SOLVING FOR HEAD 
                                                   Max.-Head-Change                         Max.-Flux-Residual
  Residual-Control   Outer-Iter.   Inner-Iter.     Column Row Layer    Maximum-Head-Change  Column Row Layer    Maximum-Flux-Residual          L2-NORM 
          0                 1           2             4    7     1       0.1836801901E-02       4    7    1         0.9634339279E-01      0.2660044166E+00
          0                 2           2             4    7     1      -0.1786708079E-03       4    7    1        -0.9634344122E-02      0.2659882887E-01
          0                 3           1             4    7     1       0.1216681885E-04       4    7    1         0.6744043276E-03      0.1861766598E-02

    ------------------------------------------------
       NWT REQUIRED            3 OUTER ITERATIONS 
       AND A TOTAL OF          5 INNER ITERATIONS.
    ------------------------------------------------

 NO OUTPUT CONTROL FOR STRESS PERIOD   15   TIME STEP   12
 
 SOLVING FOR HEAD 
                                                   Max.-Head-Change                         Max.-Flux-Residual
  Residual-Control   Outer-Iter.   Inner-Iter.     Column Row Layer    Maximum-Head-Change  Column Row Layer    Maximum-Flux-Residual          L2-NORM 
          0                 1           2             4    7     1       0.1819739251E-02       4    7    1         0.9544399576E-01      0.2641508363E+00
          0                 2           2             4    7     1      -0.1770110759E-03       4    7    1        -0.9544404308E-02      0.2641375851E-01
          0                 3           1             4    7     1       0.1205379789E-04       4    7    1         0.6681085556E-03      0.1848911839E-02

    ------------------------------------------------
       NWT REQUIRED            3 OUTER ITERATIONS 
       AND A TOTAL OF          5 INNER ITERATIONS.
    ------------------------------------------------

 NO OUTPUT CONTROL FOR STRESS PERIOD   15   TIME STEP   13
 
 SOLVING FOR HEAD 
                                                   Max.-Head-Change                         Max.-Flux-Residual
  Residual-Control   Outer-Iter.   Inner-Iter.     Column Row Layer    Maximum-Head-Change  Column Row Layer    Maximum-Flux-Residual          L2-NORM 
          0                 1           2             4    7     1       0.1802952752E-02       4    7    1         0.9455931445E-01      0.2623302089E+00
          0                 2           2             4    7     1      -0.1753782052E-03       4    7    1        -0.9455936050E-02      0.2623191903E-01
          0                 3           1             4    7     1       0.1194260500E-04       4    7    1         0.6619157703E-03      0.1836139909E-02

    ------------------------------------------------
       NWT REQUIRED            3 OUTER ITERATIONS 
       AND A TOTAL OF          5 INNER ITERATIONS.
    ------------------------------------------------

 NO OUTPUT CONTROL FOR STRESS PERIOD   15   TIME STEP   14
 
 SOLVING FOR HEAD 
                                                   Max.-Head-Change                         Max.-Flux-Residual
  Residual-Control   Outer-Iter.   Inner-Iter.     Column Row Layer    Maximum-Head-Change  Column Row Layer    Maximum-Flux-Residual          L2-NORM 
          0                 1           2             4    7     1       0.1786165008E-02       4    7    1         0.9367413493E-01      0.2605414308E+00
          0                 2           2             4    7     1      -0.1737452139E-03       4    7    1        -0.9367418005E-02      0.2605334708E-01
          0                 3           1             4    7     1       0.1183140407E-04       4    7    1         0.6557194893E-03      0.1823618137E-02

    ------------------------------------------------
       NWT REQUIRED            3 OUTER ITERATIONS 
       AND A TOTAL OF          5 INNER ITERATIONS.
    ------------------------------------------------

 NO OUTPUT CONTROL FOR STRESS PERIOD   15   TIME STEP   15
 
 SOLVING FOR HEAD 
                                                   Max.-Head-Change                         Max.-Flux-Residual
  Residual-Control   Outer-Iter.   Inner-Iter.     Column Row Layer    Maximum-Head-Change  Column Row Layer    Maximum-Flux-Residual          L2-NORM 
          0                 1           2             4    7     1       0.1769652034E-02       4    7    1         0.9280370722E-01      0.2587854653E+00
          0                 2           2             4    7     1      -0.1721389511E-03       4    7    1        -0.9280375152E-02      0.2587791901E-01
          0                 3           1             4    7     1       0.1172202409E-04       4    7    1         0.6496265069E-03      0.1811386151E-02

    ------------------------------------------------
       NWT REQUIRED            3 OUTER ITERATIONS 
       AND A TOTAL OF          5 INNER ITERATIONS.
    ------------------------------------------------

 NO OUTPUT CONTROL FOR STRESS PERIOD   15   TIME STEP   16
 
 SOLVING FOR HEAD 
                                                   Max.-Head-Change                         Max.-Flux-Residual
  Residual-Control   Outer-Iter.   Inner-Iter.     Column Row Layer    Maximum-Head-Change  Column Row Layer    Maximum-Flux-Residual          L2-NORM 
          0                 1           2             4    7     1       0.1753408055E-02       4    7    1         0.9194752597E-01      0.2570614427E+00
          0                 2           2             4    7     1      -0.1705588532E-03       4    7    1        -0.9194756924E-02      0.2570565843E-01
          0                 3           1             4    7     1       0.1161442509E-04       4    7    1         0.6436332228E-03      0.1799342845E-02

    ------------------------------------------------
       NWT REQUIRED            3 OUTER ITERATIONS 
       AND A TOTAL OF          5 INNER ITERATIONS.
    ------------------------------------------------

 NO OUTPUT CONTROL FOR STRESS PERIOD   15   TIME STEP   17
 
 SOLVING FOR HEAD 
                                                   Max.-Head-Change                         Max.-Flux-Residual
  Residual-Control   Outer-Iter.   Inner-Iter.     Column Row Layer    Maximum-Head-Change  Column Row Layer    Maximum-Flux-Residual          L2-NORM 
          0                 1           2             4    7     1       0.1737698777E-02       4    7    1         0.9112010834E-01      0.2553725027E+00
          0                 2           2             4    7     1      -0.1690307675E-03       4    7    1        -0.9112015076E-02      0.2553691703E-01
          0                 3           1             4    7     1       0.1151036790E-04       4    7    1         0.6378412822E-03      0.1787594717E-02

    ------------------------------------------------
       NWT REQUIRED            3 OUTER ITERATIONS 
       AND A TOTAL OF          5 INNER ITERATIONS.
    ------------------------------------------------

 NO OUTPUT CONTROL FOR STRESS PERIOD   15   TIME STEP   18
 
 SOLVING FOR HEAD 
                                                   Max.-Head-Change                         Max.-Flux-Residual
  Residual-Control   Outer-Iter.   Inner-Iter.     Column Row Layer    Maximum-Head-Change  Column Row Layer    Maximum-Flux-Residual          L2-NORM 
          0                 1           2             4    7     1       0.1721686303E-02       4    7    1         0.9027596476E-01      0.2537010161E+00
          0                 2           2             4    7     1      -0.1674731889E-03       4    7    1        -0.9027600614E-02      0.2536986645E-01
          0                 3           1             4    7     1       0.1140430253E-04       4    7    1         0.6319322747E-03      0.1775881598E-02

    ------------------------------------------------
       NWT REQUIRED            3 OUTER ITERATIONS 
       AND A TOTAL OF          5 INNER ITERATIONS.
    ------------------------------------------------

 NO OUTPUT CONTROL FOR STRESS PERIOD   15   TIME STEP   19
 
 SOLVING FOR HEAD 
                                                   Max.-Head-Change                         Max.-Flux-Residual
  Residual-Control   Outer-Iter.   Inner-Iter.     Column Row Layer    Maximum-Head-Change  Column Row Layer    Maximum-Flux-Residual          L2-NORM 
          0                 1           2             4    7     1       0.1706212331E-02       4    7    1         0.8946055052E-01      0.2520589694E+00
          0                 2           2             4    7     1      -0.1659679924E-03       4    7    1        -0.8946059110E-02      0.2520572310E-01
          0                 3           1             4    7     1       0.1130180478E-04       4    7    1         0.6262243774E-03      0.1764393244E-02

    ------------------------------------------------
       NWT REQUIRED            3 OUTER ITERATIONS 
       AND A TOTAL OF          5 INNER ITERATIONS.
    ------------------------------------------------

 NO OUTPUT CONTROL FOR STRESS PERIOD   15   TIME STEP   20
 
 SOLVING FOR HEAD 
                                                   Max.-Head-Change                         Max.-Flux-Residual
  Residual-Control   Outer-Iter.   Inner-Iter.     Column Row Layer    Maximum-Head-Change  Column Row Layer    Maximum-Flux-Residual          L2-NORM 
          0                 1           2             4    7     1       0.1690977264E-02       4    7    1         0.8865824048E-01      0.2504477978E+00
          0                 2           2             4    7     1      -0.1644860342E-03       4    7    1        -0.8865828006E-02      0.2504465377E-01
          0                 3           1             4    7     1       0.1120088872E-04       4    7    1         0.6206081916E-03      0.1753135439E-02

    ------------------------------------------------
       NWT REQUIRED            3 OUTER ITERATIONS 
       AND A TOTAL OF          5 INNER ITERATIONS.
    ------------------------------------------------

 NO OUTPUT CONTROL FOR STRESS PERIOD   15   TIME STEP   21
 
 SOLVING FOR HEAD 
                                                   Max.-Head-Change                         Max.-Flux-Residual
  Residual-Control   Outer-Iter.   Inner-Iter.     Column Row Layer    Maximum-Head-Change  Column Row Layer    Maximum-Flux-Residual          L2-NORM 
          0                 1           2             4    7     1       0.1675980765E-02       4    7    1         0.8786831725E-01      0.2488644663E+00
          0                 2           2             4    7     1      -0.1630272824E-03       4    7    1        -0.8786835604E-02      0.2488636092E-01
          0                 3           1             4    7     1       0.1110155316E-04       4    7    1         0.6150787121E-03      0.1742173343E-02

    ------------------------------------------------
       NWT REQUIRED            3 OUTER ITERATIONS 
       AND A TOTAL OF          5 INNER ITERATIONS.
    ------------------------------------------------

 NO OUTPUT CONTROL FOR STRESS PERIOD   15   TIME STEP   22
 
 SOLVING FOR HEAD 
                                                   Max.-Head-Change                         Max.-Flux-Residual
  Residual-Control   Outer-Iter.   Inner-Iter.     Column Row Layer    Maximum-Head-Change  Column Row Layer    Maximum-Flux-Residual          L2-NORM 
          0                 1           2             4    7     1       0.1660944091E-02       4    7    1         0.8707594683E-01      0.2472868281E+00
          0                 2           2             4    7     1      -0.1615646232E-03       4    7    1        -0.8707598477E-02      0.2472867158E-01
          0                 3           1             4    7     1       0.1100195135E-04       4    7    1         0.6095321287E-03      0.1730986896E-02

    ------------------------------------------------
       NWT REQUIRED            3 OUTER ITERATIONS 
       AND A TOTAL OF          5 INNER ITERATIONS.
    ------------------------------------------------

 NO OUTPUT CONTROL FOR STRESS PERIOD   15   TIME STEP   23
 
 SOLVING FOR HEAD 
                                                   Max.-Head-Change                         Max.-Flux-Residual
  Residual-Control   Outer-Iter.   Inner-Iter.     Column Row Layer    Maximum-Head-Change  Column Row Layer    Maximum-Flux-Residual          L2-NORM 
          0                 1           2             4    7     1       0.1646148031E-02       4    7    1         0.8629631016E-01      0.2457417226E+00
          0                 2           2             4    7     1      -0.1601253687E-03       4    7    1        -0.8629634731E-02      0.2457413870E-01
          0                 3           1             4    7     1       0.1090394352E-04       4    7    1         0.6040746589E-03      0.1720206134E-02

    ------------------------------------------------
       NWT REQUIRED            3 OUTER ITERATIONS 
       AND A TOTAL OF          5 INNER ITERATIONS.
    ------------------------------------------------

 NO OUTPUT CONTROL FOR STRESS PERIOD   15   TIME STEP   24
 
 SOLVING FOR HEAD 
                                                   Max.-Head-Change                         Max.-Flux-Residual
  Residual-Control   Outer-Iter.   Inner-Iter.     Column Row Layer    Maximum-Head-Change  Column Row Layer    Maximum-Flux-Residual          L2-NORM 
          0                 1           2             4    7     1       0.1631853805E-02       4    7    1         0.8554396598E-01      0.2442196579E+00
          0                 2           2             4    7     1      -0.1587349293E-03       4    7    1        -0.8554400247E-02      0.2442191865E-01
          0                 3           1             4    7     1       0.1080925978E-04       4    7    1         0.5988082412E-03      0.1709515689E-02

    ------------------------------------------------
       NWT REQUIRED            3 OUTER ITERATIONS 
       AND A TOTAL OF          5 INNER ITERATIONS.
    ------------------------------------------------

 NO OUTPUT CONTROL FOR STRESS PERIOD   15   TIME STEP   25
 
 SOLVING FOR HEAD 
                                                   Max.-Head-Change                         Max.-Flux-Residual
  Residual-Control   Outer-Iter.   Inner-Iter.     Column Row Layer    Maximum-Head-Change  Column Row Layer    Maximum-Flux-Residual          L2-NORM 
          0                 1           2             4    7     1       0.1617504204E-02       4    7    1         0.8478800740E-01      0.2427219968E+00
          0                 2           2             4    7     1      -0.1573391034E-03       4    7    1        -0.8478804321E-02      0.2427216299E-01
          0                 3           1             4    7     1       0.1071420895E-04       4    7    1         0.5935165268E-03      0.1699039075E-02

    ------------------------------------------------
       NWT REQUIRED            3 OUTER ITERATIONS 
       AND A TOTAL OF          5 INNER ITERATIONS.
    ------------------------------------------------

 NO OUTPUT CONTROL FOR STRESS PERIOD   15   TIME STEP   26
 
 SOLVING FOR HEAD 
                                                   Max.-Head-Change                         Max.-Flux-Residual
  Residual-Control   Outer-Iter.   Inner-Iter.     Column Row Layer    Maximum-Head-Change  Column Row Layer    Maximum-Flux-Residual          L2-NORM 
          0                 1           2             4    7     1       0.1603380582E-02       4    7    1         0.8404399475E-01      0.2412406553E+00
          0                 2           2             4    7     1      -0.1559652589E-03       4    7    1        -0.8404402967E-02      0.2412404933E-01
          0                 3           1             4    7     1       0.1062065556E-04       4    7    1         0.5883084350E-03      0.1688676935E-02

    ------------------------------------------------
       NWT REQUIRED            3 OUTER ITERATIONS 
       AND A TOTAL OF          5 INNER ITERATIONS.
    ------------------------------------------------

 NO OUTPUT CONTROL FOR STRESS PERIOD   15   TIME STEP   27
 
 SOLVING FOR HEAD 
                                                   Max.-Head-Change                         Max.-Flux-Residual
  Residual-Control   Outer-Iter.   Inner-Iter.     Column Row Layer    Maximum-Head-Change  Column Row Layer    Maximum-Flux-Residual          L2-NORM 
          0                 1           2             4    7     1       0.1589474369E-02       4    7    1         0.8331169890E-01      0.2397806770E+00
          0                 2           2             4    7     1      -0.1546125625E-03       4    7    1        -0.8331173315E-02      0.2397802728E-01
          0                 3           1             4    7     1       0.1052854185E-04       4    7    1         0.5831823487E-03      0.1678479452E-02

    ------------------------------------------------
       NWT REQUIRED            3 OUTER ITERATIONS 
       AND A TOTAL OF          5 INNER ITERATIONS.
    ------------------------------------------------

 NO OUTPUT CONTROL FOR STRESS PERIOD   15   TIME STEP   28
 
 SOLVING FOR HEAD 
                                                   Max.-Head-Change                         Max.-Flux-Residual
  Residual-Control   Outer-Iter.   Inner-Iter.     Column Row Layer    Maximum-Head-Change  Column Row Layer    Maximum-Flux-Residual          L2-NORM 
          0                 1           2             4   13     1       0.4544581663E-02       4   13    1         0.2609794853E+00      0.5548355482E+00
          0                 2           2             7   13     1      -0.9473405403E-03       7   13    1        -0.5253692618E-01      0.7422867133E-01
          0                 3           1             7   13     1       0.6449218283E-04       7   13    1         0.3676553052E-02      0.5118038072E-02

    ------------------------------------------------
       NWT REQUIRED            3 OUTER ITERATIONS 
       AND A TOTAL OF          5 INNER ITERATIONS.
    ------------------------------------------------

 NO OUTPUT CONTROL FOR STRESS PERIOD   15   TIME STEP   29
 
 SOLVING FOR HEAD 
                                                   Max.-Head-Change                         Max.-Flux-Residual
  Residual-Control   Outer-Iter.   Inner-Iter.     Column Row Layer    Maximum-Head-Change  Column Row Layer    Maximum-Flux-Residual          L2-NORM 
          0                 1           2             4   13     1       0.2188115367E-01       4   13    1         0.1262874685E+01      0.2311091397E+01
          0                 2           2             4   13     1      -0.2105184984E-02       4   13    1        -0.1249283105E+00      0.2243792839E+00
          0                 3           2             4   13     1       0.1411838580E-03       4   13    1         0.8614419089E-02      0.1507803079E-01
          0                 4           1             4   13     1      -0.5479821763E-05       4   13    1        -0.3438028843E-03      0.5770743823E-03

    ------------------------------------------------
       NWT REQUIRED            4 OUTER ITERATIONS 
       AND A TOTAL OF          7 INNER ITERATIONS.
    ------------------------------------------------

 NO OUTPUT CONTROL FOR STRESS PERIOD   15   TIME STEP   30



 STREAM LISTING     PERIOD     15   STEP       30

 LAYER ROW COL. STREAM  RCH.  FLOW INTO     FLOW TO   FLOW OUT OF   OVRLND.     DIRECT     STREAM       STREAM     STREAM     STREAM   STREAMBED  STREAMBED
                SEG.NO.  NO.  STRM. RCH.    AQUIFER    STRM. RCH.    RUNOFF     PRECIP       ET          HEAD       DEPTH      WIDTH   CONDCTNC.   GRADIENT

   1    1    1     1     1    7.3501E+01  4.1745E-01   7.3084E+01  0.000E+00  0.000E+00  0.000E+00  1.09473E+03  1.681E+00  1.982E+01  8.917E-02  1.560E+00
   1    2    2     1     2    7.3084E+01  6.4666E-01   7.2437E+01  0.000E+00  0.000E+00  0.000E+00  1.08973E+03  1.675E+00  1.976E+01  1.383E-01  1.558E+00
   1    3    3     1     3    7.2437E+01  5.5167E-01   7.1885E+01  0.000E+00  0.000E+00  0.000E+00  1.08409E+03  1.669E+00  1.969E+01  1.182E-01  1.556E+00
   1    3    4     1     4    7.1885E+01  5.0815E-01   7.1377E+01  0.000E+00  0.000E+00  0.000E+00  1.07907E+03  1.663E+00  1.963E+01  1.090E-01  1.554E+00
   1    4    5     2     1    6.9377E+01  4.0746E-01   6.8970E+01  0.000E+00  0.000E+00  0.000E+00  1.07416E+03  2.224E+00  1.200E+01  7.800E-02  1.741E+00
   1    5    6     2     2    6.8970E+01  3.1301E-01   6.8657E+01  0.000E+00  0.000E+00  0.000E+00  1.06873E+03  2.217E+00  1.200E+01  6.000E-02  1.739E+00
   1    6    6     2     3    6.8657E+01  3.1265E-01   6.8344E+01  0.000E+00  0.000E+00  0.000E+00  1.06400E+03  2.211E+00  1.200E+01  6.000E-02  1.737E+00
   1    7    6     2     4    6.8344E+01  3.1229E-01   6.8032E+01  0.000E+00  0.000E+00  0.000E+00  1.05928E+03  2.205E+00  1.200E+01  6.000E-02  1.735E+00
   1    8    6     2     5    6.8032E+01  3.1192E-01   6.7720E+01  0.000E+00  0.000E+00  0.000E+00  1.05456E+03  2.199E+00  1.200E+01  6.000E-02  1.733E+00
   1    3    5     3     1    2.0000E+00  2.8252E-01   1.7175E+00  0.000E+00  0.000E+00  0.000E+00  1.07555E+03  1.909E+00  9.636E+00  7.227E-02  1.955E+00
   1    3    6     3     2    1.7175E+00  2.4905E-01   1.4684E+00  0.000E+00  0.000E+00  0.000E+00  1.07264E+03  1.727E+00  8.909E+00  6.682E-02  1.864E+00
   1    3    7     3     3    1.4684E+00  1.9718E-01   1.2712E+00  0.000E+00  0.000E+00  0.000E+00  1.06987E+03  1.555E+00  8.218E+00  5.547E-02  1.777E+00
   1    4    8     3     4    1.2712E+00  2.2567E-01   1.0456E+00  0.000E+00  0.000E+00  0.000E+00  1.06682E+03  1.364E+00  7.455E+00  6.709E-02  1.682E+00
   1    5    8     3     5    1.0456E+00  1.5790E-01   8.8768E-01  0.000E+00  0.000E+00  0.000E+00  1.06362E+03  1.164E+00  6.655E+00  4.991E-02  1.582E+00
   1    6    8     3     6    8.8768E-01  5.5980E-02   8.3170E-01  0.000E+00  0.000E+00  0.000E+00  1.06158E+03  1.036E+00  6.145E+00  1.844E-02  1.518E+00
   1    5   10     4     1    1.0000E+01  9.0919E-02   9.9091E+00  0.000E+00  0.000E+00  0.000E+00  1.07836E+03  6.368E-01  1.000E+01  2.500E-02  1.212E+00
   1    5    9     4     2    9.9091E+00  1.8158E-01   9.7275E+00  0.000E+00  0.000E+00  0.000E+00  1.07154E+03  6.315E-01  1.000E+01  5.000E-02  1.211E+00
   1    6    8     4     3    9.7275E+00  1.2689E-01   9.6006E+00  0.000E+00  0.000E+00  0.000E+00  1.06381E+03  6.256E-01  1.000E+01  3.500E-02  1.209E+00
   1    6    8     5     1    1.0432E+01  2.2686E-01   1.0205E+01  0.000E+00  0.000E+00  0.000E+00  1.05868E+03  6.790E-01  1.542E+01  6.166E-02  1.226E+00
   1    7    7     5     2    1.0205E+01  2.7894E-01   9.9265E+00  0.000E+00  0.000E+00  0.000E+00  1.05417E+03  6.732E-01  1.519E+01  7.594E-02  1.224E+00
   1    8    7     5     3    9.9265E+00  1.9221E-01   9.7343E+00  0.000E+00  0.000E+00  0.000E+00  1.04992E+03  6.676E-01  1.497E+01  5.241E-02  1.223E+00
   1    8    6     5     4    9.7343E+00  1.3577E-01   9.5985E+00  0.000E+00  0.000E+00  0.000E+00  1.04691E+03  6.637E-01  1.482E+01  3.706E-02  1.221E+00
   1    9    6     6     1    7.7318E+01  3.2406E-01   7.6994E+01  0.000E+00  0.000E+00  0.000E+00  1.04513E+03  2.401E+00  1.200E+01  6.000E-02  1.800E+00
   1   10    7     6     2    7.6994E+01  3.2370E-01   7.6671E+01  0.000E+00  0.000E+00  0.000E+00  1.04058E+03  2.395E+00  1.200E+01  6.000E-02  1.798E+00
   1   11    7     6     3    7.6671E+01  3.2333E-01   7.6347E+01  0.000E+00  0.000E+00  0.000E+00  1.03603E+03  2.389E+00  1.200E+01  6.000E-02  1.796E+00
   1   12    7     6     4    7.6347E+01  3.2297E-01   7.6024E+01  0.000E+00  0.000E+00  0.000E+00  1.03147E+03  2.383E+00  1.200E+01  6.000E-02  1.794E+00
   1   13    7     6     5    7.6024E+01  2.8181E-02   7.5996E+01  0.000E+00  0.000E+00  0.000E+00  1.02829E+03  2.380E+00  1.200E+01  2.400E-02  3.914E-01
   1   14    9     7     1    1.5000E+02  1.3360E+00   1.4866E+02  0.000E+00  0.000E+00  0.000E+00  1.03987E+03  2.288E+00  5.529E+01  5.593E-01  7.962E-01
   1   13    8     7     2    1.4866E+02  1.8234E+00   1.4684E+02  0.000E+00  0.000E+00  0.000E+00  1.03478E+03  2.279E+00  5.526E+01  6.148E-01  9.886E-01
   1   13    7     7     3    1.4684E+02  1.4383E+00   1.4540E+02  0.000E+00  0.000E+00  0.000E+00  1.02969E+03  2.271E+00  5.522E+01  5.585E-01  8.585E-01
   1   13    6     8     1    2.2140E+02  1.1197E+00   2.2028E+02  0.000E+00  0.000E+00  0.000E+00  1.02513E+03  3.257E+00  4.722E+01  4.812E-01  7.757E-01
   1   13    5     8     2    2.2028E+02  2.9298E-01   2.1999E+02  0.000E+00  0.000E+00  0.000E+00  1.01888E+03  3.253E+00  4.716E+01  4.806E-01  2.032E-01
   1   13    4     8     3    2.1999E+02 -1.4514E+00   2.2144E+02  0.000E+00  0.000E+00  0.000E+00  1.01263E+03  3.256E+00  4.721E+01  4.811E+00 -1.006E-01
   1   13    3     8     4    2.2144E+02 -2.6935E+00   2.2413E+02  0.000E+00  0.000E+00  0.000E+00  1.00639E+03  3.267E+00  4.738E+01  4.828E+00 -1.860E-01
   1   13    2     8     5    2.2413E+02 -1.4667E+00   2.2560E+02  0.000E+00  0.000E+00  0.000E+00  1.00015E+03  3.279E+00  4.754E+01  4.845E+00 -1.009E-01
   1   13    1     8     6    2.2560E+02 -1.3335E+00   2.2693E+02  0.000E+00  0.000E+00  0.000E+00  9.95161E+02  3.286E+00  4.765E+01  2.914E+00 -1.526E-01
   1    8    6     9     1    0.0000E+00  0.0000E+00   0.0000E+00  0.000E+00  0.000E+00  0.000E+00  1.07875E+03  0.000E+00  4.000E+00  0.000E+00  1.000E+00
   1    8    5     9     2    0.0000E+00  0.0000E+00   0.0000E+00  0.000E+00  0.000E+00  0.000E+00  1.07825E+03  0.000E+00  4.000E+00  0.000E+00  1.000E+00





UNSATURATED ZONE PACKAGE VOLUMETRIC BUDGET FOR  TIME STEP    30 STRESS PERIOD   15
  ------------------------------------------------------------------------------



     CUMULATIVE VOLUMES      L**3       RATES FOR THIS TIME STEP      L**3/T
     ------------------                 ------------------------

           IN:                                      IN:
           ---                                      ---
        INFILTRATION =   439353754.8600          INFILTRATION =           0.8475

          OUT:                                     OUT:
          ----                                     ----
              UZF ET =   433972978.1847                UZF ET =           0.7500
        UZF RECHARGE =       73224.0000          UZF RECHARGE =       0.0000E+00

            IN - OUT =     5307552.6753              IN - OUT =       9.7500E-02

          STORAGE:                                 STORAGE:
          --------                                 --------
      STORAGE CHANGE =     5307755.6474        STORAGE CHANGE =       9.7500E-02

 PERCENT DISCREPANCY IS DIFFERENCE BETWEEN IN-OUT MINUS CHANGE IN STORAGE
 DIVIDED BY THE AVERAGE OF IN AND OUT TIMES 100

 PERCENT DISCREPANCY =          -0.00     PERCENT DISCREPANCY =           0.00






1
  VOLUMETRIC BUDGET FOR AGRICULTURAL FIELDS AT  END OF TIME STEP   30, STRESS PERIOD  15
  ------------------------------------------------------------------------------

     CUMULATIVE VOLUMES      L**3       RATES FOR THIS TIME STEP      L**3/T
     ------------------                 ------------------------

           IN:                                      IN:
           ---                                      ---
               AG WELLS  =    49128108.0000                 AG WELLS  =           0.0000
      DIVERSION SEGMENTS =   358973504.0000        DIVERSION SEGMENTS =           0.0000
       IRRIGATION PONDS  =           0.0000         IRRIGATION PONDS  =           0.0000
           GW IRRIGATION =           0.0000             GW IRRIGATION =           0.0000
           SW IRRIGATION =           0.0000             SW IRRIGATION =           0.0000
        SYSTEM LOSSES GW =           0.0000          SYSTEM LOSSES GW =           0.0000
        SYSTEM LOSSES SW =           0.0000          SYSTEM LOSSES SW =           0.0000

                TOTAL IN =   408101600.0000                  TOTAL IN =           0.0000

          OUT:                                     OUT:
          ----                                     ----
               AG WELLS  =           0.0000                 AG WELLS  =           0.0000
      DIVERSION SEGMENTS =           0.0000        DIVERSION SEGMENTS =           0.0000
       IRRIGATION PONDS  =           0.0000         IRRIGATION PONDS  =           0.0000
           GW IRRIGATION =    49128108.0000             GW IRRIGATION =           0.0000
           SW IRRIGATION =   358980608.0000             SW IRRIGATION =           0.0000
        SYSTEM LOSSES GW =           0.0000          SYSTEM LOSSES GW =           0.0000
        SYSTEM LOSSES SW =           0.0000          SYSTEM LOSSES SW =           0.0000

               TOTAL OUT =   408108704.0000                 TOTAL OUT =           0.0000

                IN - OUT =       -7104.0000                  IN - OUT =           0.0000

     PERCENT DISCREPANCY =          -0.00         PERCENT DISCREPANCY =           0.00



1
  VOLUMETRIC BUDGET FOR ENTIRE MODEL AT END OF TIME STEP   30, STRESS PERIOD  15
  ------------------------------------------------------------------------------

     CUMULATIVE VOLUMES      L**3       RATES FOR THIS TIME STEP      L**3/T
     ------------------                 ------------------------

           IN:                                      IN:
           ---                                      ---
             STORAGE     =    91682056.0000               STORAGE     =           0.6007
       CONSTANT HEAD     =           0.0000         CONSTANT HEAD     =           0.0000
     HEAD DEP BOUNDS     =    10545783.0000       HEAD DEP BOUNDS     =           0.2858
      STREAM LEAKAGE     =   437249152.0000        STREAM LEAKAGE     =          13.5154
        UZF RECHARGE     =       73223.9531          UZF RECHARGE     =           0.0000
               GW ET     =           0.0000                 GW ET     =           0.0000
     SURFACE LEAKAGE     =           0.0000       SURFACE LEAKAGE     =           0.0000
           AG WELLS      =           0.0000             AG WELLS      =           0.0000

                TOTAL IN =   539550208.0000                  TOTAL IN =          14.4018

          OUT:                                     OUT:
          ----                                     ----
             STORAGE     =    77456752.0000               STORAGE     =           7.1672
       CONSTANT HEAD     =           0.0000         CONSTANT HEAD     =           0.0000
     HEAD DEP BOUNDS     =    10721936.0000       HEAD DEP BOUNDS     =           0.2895
      STREAM LEAKAGE     =   400707264.0000        STREAM LEAKAGE     =           6.9451
        UZF RECHARGE     =           0.0000          UZF RECHARGE     =           0.0000
               GW ET     =     1538617.0000                 GW ET     =           0.0000
     SURFACE LEAKAGE     =           0.0000       SURFACE LEAKAGE     =           0.0000
           AG WELLS      =    49128108.0000             AG WELLS      =           0.0000

               TOTAL OUT =   539552704.0000                 TOTAL OUT =          14.4018

                IN - OUT =       -2496.0000                  IN - OUT =       2.6703E-05

     PERCENT DISCREPANCY =          -0.00         PERCENT DISCREPANCY =           0.00






         TIME SUMMARY AT END OF TIME STEP   30 IN STRESS PERIOD   15
                    SECONDS     MINUTES      HOURS       DAYS        YEARS
                    -----------------------------------------------------------
   TIME STEP LENGTH  87667.      1461.1      24.352      1.0147     2.77799E-03
 STRESS PERIOD TIME 2.63000E+06  43833.      730.56      30.440     8.33397E-02
         TOTAL TIME 3.69063E+07 6.15106E+05  10252.      427.16      1.1695    
1
1
                            STRESS PERIOD NO.   16, LENGTH =   2630000.    
                            -----------------------------------------------

                              NUMBER OF TIME STEPS =    30

                               MULTIPLIER FOR DELT =     1.000

                            INITIAL TIME STEP SIZE =   87666.66    

 REUSING NON-PARAMETER GHB CELLS FROM LAST STRESS PERIOD

      2 GHB CELLS

 REUSING STREAM SEGMENT DATA FROM LAST STRESS PERIOD



            AREAL INFILTRATION RATE
 READING ON UNIT   19 WITH FORMAT: (FREE)              

            1           2           3           4           5           6           7           8           9          10
 ........................................................................................................................
   1   1.0000E-10  2.0000E-10   0.000       0.000       0.000       0.000       0.000       0.000       0.000       0.000    
   2   2.0000E-10  1.0000E-10  2.0000E-10   0.000       0.000      8.0000E-10  8.0000E-10  5.0000E-10   0.000       0.000    
   3    0.000      5.0000E-10  1.0000E-10  1.0000E-10  8.0000E-10  8.0000E-10  5.0000E-10  5.0000E-10   0.000       0.000    
   4   8.0000E-10  5.0000E-10  1.0000E-10  1.0000E-10  1.0000E-10  1.0000E-10  1.0000E-10  1.0000E-10  2.0000E-10   0.000    
   5   8.0000E-10  5.0000E-10  1.0000E-10  1.0000E-10  1.0000E-10  1.0000E-10  1.0000E-10  1.0000E-10  1.0000E-10  1.0000E-10
   6   8.0000E-10  5.0000E-10  5.0000E-10  2.0000E-10  2.0000E-10  1.0000E-10  1.0000E-10  1.0000E-10  1.0000E-10  5.0000E-10
   7   8.0000E-10  5.0000E-10  5.0000E-10  2.0000E-10  2.0000E-10  1.0000E-10  1.0000E-10  2.0000E-10  2.0000E-10   0.000    
   8    0.000      5.0000E-10  5.0000E-10  2.0000E-10  2.0000E-10  1.0000E-10  1.0000E-10  2.0000E-10  5.0000E-10   0.000    
   9    0.000      5.0000E-10  5.0000E-10  2.0000E-10  2.0000E-10  1.0000E-10  1.0000E-10  2.0000E-10  5.0000E-10   0.000    
  10    0.000      5.0000E-10  5.0000E-10  2.0000E-10  2.0000E-10  1.0000E-10  1.0000E-10  2.0000E-10  5.0000E-10  8.0000E-10
  11    0.000      1.0000E-10  1.0000E-10  1.0000E-10  1.0000E-10  1.0000E-10  1.0000E-10  2.0000E-10  5.0000E-10   0.000    
  12   1.0000E-10  1.0000E-10  1.0000E-10  1.0000E-10  1.0000E-10  1.0000E-10  1.0000E-10  1.0000E-10  2.0000E-10   0.000    
  13   1.0000E-10  1.0000E-10  2.0000E-10  2.0000E-10  2.0000E-10  2.0000E-10  2.0000E-10  1.0000E-10  1.0000E-10   0.000    
  14    0.000      2.0000E-10  5.0000E-10  5.0000E-10  5.0000E-10  5.0000E-10  5.0000E-10  2.0000E-10  1.0000E-10   0.000    
  15    0.000       0.000      8.0000E-10  8.0000E-10  8.0000E-10  8.0000E-10   0.000       0.000       0.000       0.000    

                  ET RATE =  5.000000E-10

 USING ET EXTINCTION DEPTH FROM PREVIOUS STRESS PERIOD. CURRENT PERIOD IS:      16

 USING EXTINCTION WATER CONTENT FROM PREVIOUS STRESS PERIOD. CURRENT PERIOD IS:      16

 USING AIR ENTRY PRESSURE FROM PREVIOUS STRESS PERIOD. CURRENT PERIOD IS:      16

 USING ROOT PRESSURE HEAD FROM PREVIOUS STRESS PERIOD. CURRENT PERIOD IS:      16

 USING ROOT ACTIVITY FROM PREVIOUS STRESS PERIOD. CURRENT PERIOD IS:      16

 PROCESSING AG STRESS PERIOD DATA

 READING AG STRESS PERIOD DATA

 READING IRRIGATION SEGMENT

 READING IRRIGATION WELL

 READING SUPPLEMENTAL WELL

 NO IRRPOND OR REUSING IRRPOND DATA FROM LAST STRESS PERIOD

 END PROCESSING AG STRESS PERIOD DATA OPTIONS
 
 SOLVING FOR HEAD 
                                                   Max.-Head-Change                         Max.-Flux-Residual
  Residual-Control   Outer-Iter.   Inner-Iter.     Column Row Layer    Maximum-Head-Change  Column Row Layer    Maximum-Flux-Residual          L2-NORM 
          0                 1           2             2   13     1       0.1972140922E-01       4   13    1         0.1137431658E+01      0.2136975169E+01
          0                 2           2             4   13     1      -0.1897083078E-02       4   13    1        -0.1125143625E+00      0.2075924353E+00
          0                 3           2             4   13     1       0.1272063835E-03       4   13    1         0.7757044505E-02      0.1396102693E-01
          0                 4           1             4   13     1      -0.4927945753E-05       4   13    1        -0.3089882766E-03      0.5347950138E-03

    ------------------------------------------------
       NWT REQUIRED            4 OUTER ITERATIONS 
       AND A TOTAL OF          7 INNER ITERATIONS.
    ------------------------------------------------

 NO OUTPUT CONTROL FOR STRESS PERIOD   16   TIME STEP    1
 
 SOLVING FOR HEAD 
                                                   Max.-Head-Change                         Max.-Flux-Residual
  Residual-Control   Outer-Iter.   Inner-Iter.     Column Row Layer    Maximum-Head-Change  Column Row Layer    Maximum-Flux-Residual          L2-NORM 
          0                 1           2             2   13     1       0.1815875504E-01       2   13    1         0.1028038058E+01      0.1979946635E+01
          0                 2           2             4   13     1      -0.1710561788E-02       4   13    1        -0.1013913437E+00      0.1924604178E+00
          0                 3           1             4   13     1       0.1147011997E-03       4   13    1         0.6990241453E-02      0.1295529999E-01
          0                 4           1             4   13     1      -0.4441936890E-05       4   13    1        -0.2783386990E-03      0.4968322364E-03

    ------------------------------------------------
       NWT REQUIRED            4 OUTER ITERATIONS 
       AND A TOTAL OF          6 INNER ITERATIONS.
    ------------------------------------------------

 NO OUTPUT CONTROL FOR STRESS PERIOD   16   TIME STEP    2
 
 SOLVING FOR HEAD 
                                                   Max.-Head-Change                         Max.-Flux-Residual
  Residual-Control   Outer-Iter.   Inner-Iter.     Column Row Layer    Maximum-Head-Change  Column Row Layer    Maximum-Flux-Residual          L2-NORM 
          0                 1           2             2   13     1       0.1672057721E-01       2   13    1         0.9465240059E+00      0.1838383049E+01
          0                 2           2             2   13     1      -0.1549676591E-02       4   13    1        -0.9142111472E-01      0.1788257589E+00
          0                 3           1             4   13     1       0.1034763777E-03       4   13    1         0.6302196396E-02      0.1204844940E-01
          0                 4           1             4   13     1      -0.4004155325E-05       4   13    1        -0.2507527279E-03      0.4619480652E-03

    ------------------------------------------------
       NWT REQUIRED            4 OUTER ITERATIONS 
       AND A TOTAL OF          6 INNER ITERATIONS.
    ------------------------------------------------

 NO OUTPUT CONTROL FOR STRESS PERIOD   16   TIME STEP    3
 
 SOLVING FOR HEAD 
                                                   Max.-Head-Change                         Max.-Flux-Residual
  Residual-Control   Outer-Iter.   Inner-Iter.     Column Row Layer    Maximum-Head-Change  Column Row Layer    Maximum-Flux-Residual          L2-NORM 
          0                 1           2             2   13     1       0.1539701878E-01       2   13    1         0.8715082005E+00      0.1710832608E+01
          0                 2           2             2   13     1      -0.1427907637E-02       2   13    1        -0.8308016111E-01      0.1666120367E+00
          0                 3           1             4   13     1       0.9338998848E-04       4   13    1         0.5684041208E-02      0.1123766525E-01

    ------------------------------------------------
       NWT REQUIRED            3 OUTER ITERATIONS 
       AND A TOTAL OF          5 INNER ITERATIONS.
    ------------------------------------------------

 NO OUTPUT CONTROL FOR STRESS PERIOD   16   TIME STEP    4
 
 SOLVING FOR HEAD 
                                                   Max.-Head-Change                         Max.-Flux-Residual
  Residual-Control   Outer-Iter.   Inner-Iter.     Column Row Layer    Maximum-Head-Change  Column Row Layer    Maximum-Flux-Residual          L2-NORM 
          0                 1           2             2   13     1       0.1417870363E-01       2   13    1         0.8024616144E+00      0.1595873335E+01
          0                 2           2             2   13     1      -0.1315671342E-02       2   13    1        -0.7654201898E-01      0.1555440171E+00
          0                 3           1             4   13     1       0.8448391007E-04       4   13    1         0.5139840387E-02      0.1050564783E-01

    ------------------------------------------------
       NWT REQUIRED            3 OUTER ITERATIONS 
       AND A TOTAL OF          5 INNER ITERATIONS.
    ------------------------------------------------

 NO OUTPUT CONTROL FOR STRESS PERIOD   16   TIME STEP    5
 
 SOLVING FOR HEAD 
                                                   Max.-Head-Change                         Max.-Flux-Residual
  Residual-Control   Outer-Iter.   Inner-Iter.     Column Row Layer    Maximum-Head-Change  Column Row Layer    Maximum-Flux-Residual          L2-NORM 
          0                 1           2             2   13     1       0.1305767454E-01       2   13    1         0.7389298407E+00      0.1492350984E+01
          0                 2           2             2   13     1      -0.1212284139E-02       2   13    1        -0.7051862917E-01      0.1455362562E+00
          0                 3           1             2   13     1       0.7721305830E-04       4   13    1         0.4635092882E-02      0.9842280561E-02

    ------------------------------------------------
       NWT REQUIRED            3 OUTER ITERATIONS 
       AND A TOTAL OF          5 INNER ITERATIONS.
    ------------------------------------------------

 NO OUTPUT CONTROL FOR STRESS PERIOD   16   TIME STEP    6
 
 SOLVING FOR HEAD 
                                                   Max.-Head-Change                         Max.-Flux-Residual
  Residual-Control   Outer-Iter.   Inner-Iter.     Column Row Layer    Maximum-Head-Change  Column Row Layer    Maximum-Flux-Residual          L2-NORM 
          0                 1           2             2   13     1       0.1202625600E-01       2   13    1         0.6804787951E+00      0.1399219820E+01
          0                 2           2             2   13     1      -0.1117096520E-02       2   13    1        -0.6497318936E-01      0.1365892824E+00
          0                 3           1             2   13     1       0.7120649219E-04       2   13    1         0.4256483461E-02      0.9250244469E-02

    ------------------------------------------------
       NWT REQUIRED            3 OUTER ITERATIONS 
       AND A TOTAL OF          5 INNER ITERATIONS.
    ------------------------------------------------

 NO OUTPUT CONTROL FOR STRESS PERIOD   16   TIME STEP    7
 
 SOLVING FOR HEAD 
                                                   Max.-Head-Change                         Max.-Flux-Residual
  Residual-Control   Outer-Iter.   Inner-Iter.     Column Row Layer    Maximum-Head-Change  Column Row Layer    Maximum-Flux-Residual          L2-NORM 
          0                 1           2             2   13     1       0.1107716444E-01       2   13    1         0.6266955258E+00      0.1315521089E+01
          0                 2           2             2   13     1      -0.1029388063E-02       2   13    1        -0.5986370975E-01      0.1285519349E+00
          0                 3           1             2   13     1       0.6564620655E-04       2   13    1         0.3923541779E-02      0.8718014772E-02

    ------------------------------------------------
       NWT REQUIRED            3 OUTER ITERATIONS 
       AND A TOTAL OF          5 INNER ITERATIONS.
    ------------------------------------------------

 NO OUTPUT CONTROL FOR STRESS PERIOD   16   TIME STEP    8
 
 SOLVING FOR HEAD 
                                                   Max.-Head-Change                         Max.-Flux-Residual
  Residual-Control   Outer-Iter.   Inner-Iter.     Column Row Layer    Maximum-Head-Change  Column Row Layer    Maximum-Flux-Residual          L2-NORM 
          0                 1           2             2   13     1       0.1020402846E-01       2   13    1         0.5772190018E+00      0.1240346260E+01
          0                 2           2             2   13     1      -0.9486430309E-03       2   13    1        -0.5516016404E-01      0.1213381113E+00
          0                 3           1             2   13     1       0.6053876694E-04       2   13    1         0.3617739017E-02      0.8242171590E-02

    ------------------------------------------------
       NWT REQUIRED            3 OUTER ITERATIONS 
       AND A TOTAL OF          5 INNER ITERATIONS.
    ------------------------------------------------

 NO OUTPUT CONTROL FOR STRESS PERIOD   16   TIME STEP    9
 
 SOLVING FOR HEAD 
                                                   Max.-Head-Change                         Max.-Flux-Residual
  Residual-Control   Outer-Iter.   Inner-Iter.     Column Row Layer    Maximum-Head-Change  Column Row Layer    Maximum-Flux-Residual          L2-NORM 
          0                 1           2             2   13     1       0.9400726387E-02       2   13    1         0.5317020765E+00      0.1172863055E+01
          0                 2           2             2   13     1      -0.8743102225E-03       2   13    1        -0.5083037983E-01      0.1148685641E+00
          0                 3           1             2   13     1       0.5584289859E-04       2   13    1         0.3336596638E-02      0.7816431969E-02

    ------------------------------------------------
       NWT REQUIRED            3 OUTER ITERATIONS 
       AND A TOTAL OF          5 INNER ITERATIONS.
    ------------------------------------------------

 NO OUTPUT CONTROL FOR STRESS PERIOD   16   TIME STEP   10
 
 SOLVING FOR HEAD 
                                                   Max.-Head-Change                         Max.-Flux-Residual
  Residual-Control   Outer-Iter.   Inner-Iter.     Column Row Layer    Maximum-Head-Change  Column Row Layer    Maximum-Flux-Residual          L2-NORM 
          0                 1           2             2   13     1       0.8661611584E-02       2   13    1         0.4898245757E+00      0.1112329877E+01
          0                 2           2             2   13     1      -0.8058663156E-03       2   13    1        -0.4684389736E-01      0.1090678052E+00
          0                 3           1             2   13     1       0.5151423084E-04       2   13    1         0.3077471129E-02      0.7434113175E-02

    ------------------------------------------------
       NWT REQUIRED            3 OUTER ITERATIONS 
       AND A TOTAL OF          5 INNER ITERATIONS.
    ------------------------------------------------

 NO OUTPUT CONTROL FOR STRESS PERIOD   16   TIME STEP   11
 
 SOLVING FOR HEAD 
                                                   Max.-Head-Change                         Max.-Flux-Residual
  Residual-Control   Outer-Iter.   Inner-Iter.     Column Row Layer    Maximum-Head-Change  Column Row Layer    Maximum-Flux-Residual          L2-NORM 
          0                 1           2             2   13     1       0.7981682501E-02       2   13    1         0.4513029896E+00      0.1058049795E+01
          0                 2           2             2   13     1      -0.7428291299E-03       2   13    1        -0.4317257523E-01      0.1038670657E+00
          0                 3           1             2   13     1       0.4748588265E-04       2   13    1         0.2836330325E-02      0.7090315864E-02

    ------------------------------------------------
       NWT REQUIRED            3 OUTER ITERATIONS 
       AND A TOTAL OF          5 INNER ITERATIONS.
    ------------------------------------------------

 NO OUTPUT CONTROL FOR STRESS PERIOD   16   TIME STEP   12
 
 SOLVING FOR HEAD 
                                                   Max.-Head-Change                         Max.-Flux-Residual
  Residual-Control   Outer-Iter.   Inner-Iter.     Column Row Layer    Maximum-Head-Change  Column Row Layer    Maximum-Flux-Residual          L2-NORM 
          0                 1           2             2   13     1       0.7356090829E-02       2   13    1         0.4158623054E+00      0.1009398676E+01
          0                 2           2             2   13     1      -0.6847855994E-03       2   13    1        -0.3979230602E-01      0.9920964977E-01
          0                 3           1             2   13     1       0.4378186844E-04       2   13    1         0.2614597823E-02      0.6783757184E-02

    ------------------------------------------------
       NWT REQUIRED            3 OUTER ITERATIONS 
       AND A TOTAL OF          5 INNER ITERATIONS.
    ------------------------------------------------

 NO OUTPUT CONTROL FOR STRESS PERIOD   16   TIME STEP   13
 
 SOLVING FOR HEAD 
                                                   Max.-Head-Change                         Max.-Flux-Residual
  Residual-Control   Outer-Iter.   Inner-Iter.     Column Row Layer    Maximum-Head-Change  Column Row Layer    Maximum-Flux-Residual          L2-NORM 
          0                 1           2             2   13     1       0.6780554932E-02       2   13    1         0.3832597529E+00      0.9658088767E+00
          0                 2           2             2   13     1      -0.6313824209E-03       2   13    1        -0.3668254179E-01      0.9503919416E-01
          0                 3           1             2    2     1       0.4107523657E-04       2   13    1         0.2411455488E-02      0.6508848534E-02

    ------------------------------------------------
       NWT REQUIRED            3 OUTER ITERATIONS 
       AND A TOTAL OF          5 INNER ITERATIONS.
    ------------------------------------------------

 NO OUTPUT CONTROL FOR STRESS PERIOD   16   TIME STEP   14
 
 SOLVING FOR HEAD 
                                                   Max.-Head-Change                         Max.-Flux-Residual
  Residual-Control   Outer-Iter.   Inner-Iter.     Column Row Layer    Maximum-Head-Change  Column Row Layer    Maximum-Flux-Residual          L2-NORM 
          0                 1           2             1   13     1       0.6305760657E-02       2   13    1         0.3532666666E+00      0.9267511467E+00
          0                 2           2             2    2     1      -0.5994177970E-03       2   13    1        -0.3381637538E-01      0.9130067581E-01
          0                 3           1             2    2     1       0.4081811307E-04       2    2    1         0.2252110007E-02      0.6263508578E-02

    ------------------------------------------------
       NWT REQUIRED            3 OUTER ITERATIONS 
       AND A TOTAL OF          5 INNER ITERATIONS.
    ------------------------------------------------

 NO OUTPUT CONTROL FOR STRESS PERIOD   16   TIME STEP   15
 
 SOLVING FOR HEAD 
                                                   Max.-Head-Change                         Max.-Flux-Residual
  Residual-Control   Outer-Iter.   Inner-Iter.     Column Row Layer    Maximum-Head-Change  Column Row Layer    Maximum-Flux-Residual          L2-NORM 
          0                 1           2             2    2     1       0.6123954300E-02       1   13    1         0.3281165076E+00      0.8917556229E+00
          0                 2           2             2    2     1      -0.5956954507E-03       2    2    1        -0.3197173689E-01      0.8795590926E-01
          0                 3           1             2    2     1       0.4056463553E-04       2    2    1         0.2238021491E-02      0.6043513406E-02

    ------------------------------------------------
       NWT REQUIRED            3 OUTER ITERATIONS 
       AND A TOTAL OF          5 INNER ITERATIONS.
    ------------------------------------------------

 NO OUTPUT CONTROL FOR STRESS PERIOD   16   TIME STEP   16
 
 SOLVING FOR HEAD 
                                                   Max.-Head-Change                         Max.-Flux-Residual
  Residual-Control   Outer-Iter.   Inner-Iter.     Column Row Layer    Maximum-Head-Change  Column Row Layer    Maximum-Flux-Residual          L2-NORM 
          0                 1           2             2    2     1       0.6086228637E-02       2    2    1         0.3177321614E+00      0.8603970054E+00
          0                 2           2             2    2     1      -0.5920257437E-03       2    2    1        -0.3177332615E-01      0.8495581285E-01
          0                 3           1             2    2     1       0.4031474216E-04       2    2    1         0.2224132752E-02      0.5846169517E-02

    ------------------------------------------------
       NWT REQUIRED            3 OUTER ITERATIONS 
       AND A TOTAL OF          5 INNER ITERATIONS.
    ------------------------------------------------

 NO OUTPUT CONTROL FOR STRESS PERIOD   16   TIME STEP   17
 
 SOLVING FOR HEAD 
                                                   Max.-Head-Change                         Max.-Flux-Residual
  Residual-Control   Outer-Iter.   Inner-Iter.     Column Row Layer    Maximum-Head-Change  Column Row Layer    Maximum-Flux-Residual          L2-NORM 
          0                 1           2             2    2     1       0.6048948329E-02       2    2    1         0.3157715621E+00      0.8322821636E+00
          0                 2           2             2    2     1      -0.5883993580E-03       2    2    1        -0.3157726435E-01      0.8226629099E-01
          0                 3           1             2    2     1       0.4006779892E-04       2    2    1         0.2210408436E-02      0.5669724248E-02

    ------------------------------------------------
       NWT REQUIRED            3 OUTER ITERATIONS 
       AND A TOTAL OF          5 INNER ITERATIONS.
    ------------------------------------------------

 NO OUTPUT CONTROL FOR STRESS PERIOD   16   TIME STEP   18
 
 SOLVING FOR HEAD 
                                                   Max.-Head-Change                         Max.-Flux-Residual
  Residual-Control   Outer-Iter.   Inner-Iter.     Column Row Layer    Maximum-Head-Change  Column Row Layer    Maximum-Flux-Residual          L2-NORM 
          0                 1           2             2    2     1       0.6012192871E-02       2    2    1         0.3138386223E+00      0.8070621528E+00
          0                 2           2             2    2     1      -0.5848240265E-03       2    2    1        -0.3138396853E-01      0.7985422080E-01
          0                 3           1             2    2     1       0.3982433242E-04       2    2    1         0.2196877733E-02      0.5511442686E-02

    ------------------------------------------------
       NWT REQUIRED            3 OUTER ITERATIONS 
       AND A TOTAL OF          5 INNER ITERATIONS.
    ------------------------------------------------

 NO OUTPUT CONTROL FOR STRESS PERIOD   16   TIME STEP   19
 
 SOLVING FOR HEAD 
                                                   Max.-Head-Change                         Max.-Flux-Residual
  Residual-Control   Outer-Iter.   Inner-Iter.     Column Row Layer    Maximum-Head-Change  Column Row Layer    Maximum-Flux-Residual          L2-NORM 
          0                 1           2             2    2     1       0.5975954104E-02       2    2    1         0.3119328955E+00      0.7844160673E+00
          0                 2           2             2    2     1      -0.5812989562E-03       2    2    1        -0.3119339409E-01      0.7768678844E-01
          0                 3           1             2    2     1       0.3958428868E-04       2    2    1         0.2183537547E-02      0.5368605844E-02

    ------------------------------------------------
       NWT REQUIRED            3 OUTER ITERATIONS 
       AND A TOTAL OF          5 INNER ITERATIONS.
    ------------------------------------------------

 NO OUTPUT CONTROL FOR STRESS PERIOD   16   TIME STEP   20
 
 SOLVING FOR HEAD 
                                                   Max.-Head-Change                         Max.-Flux-Residual
  Residual-Control   Outer-Iter.   Inner-Iter.     Column Row Layer    Maximum-Head-Change  Column Row Layer    Maximum-Flux-Residual          L2-NORM 
          0                 1           2             2    2     1       0.5940224118E-02       2    2    1         0.3100539584E+00      0.7640605286E+00
          0                 2           2             2    2     1      -0.5778233762E-03       2    2    1        -0.3100549864E-01      0.7573794014E-01
          0                 3           1             2    2     1       0.3934761494E-04       2    2    1         0.2170384874E-02      0.5240117123E-02

    ------------------------------------------------
       NWT REQUIRED            3 OUTER ITERATIONS 
       AND A TOTAL OF          5 INNER ITERATIONS.
    ------------------------------------------------

 NO OUTPUT CONTROL FOR STRESS PERIOD   16   TIME STEP   21
 
 SOLVING FOR HEAD 
                                                   Max.-Head-Change                         Max.-Flux-Residual
  Residual-Control   Outer-Iter.   Inner-Iter.     Column Row Layer    Maximum-Head-Change  Column Row Layer    Maximum-Flux-Residual          L2-NORM 
          0                 1           2             2    2     1       0.5904907300E-02       2    2    1         0.3081968317E+00      0.7457527626E+00
          0                 2           2             2    2     1      -0.5743879872E-03       2    2    1        -0.3081978427E-01      0.7398457991E-01
          0                 3           1             2    2     1       0.3911367785E-04       2    2    1         0.2157384879E-02      0.5124733409E-02

    ------------------------------------------------
       NWT REQUIRED            3 OUTER ITERATIONS 
       AND A TOTAL OF          5 INNER ITERATIONS.
    ------------------------------------------------

 NO OUTPUT CONTROL FOR STRESS PERIOD   16   TIME STEP   22
 
 SOLVING FOR HEAD 
                                                   Max.-Head-Change                         Max.-Flux-Residual
  Residual-Control   Outer-Iter.   Inner-Iter.     Column Row Layer    Maximum-Head-Change  Column Row Layer    Maximum-Flux-Residual          L2-NORM 
          0                 1           2             2    2     1       0.5870083699E-02       2    2    1         0.3063656966E+00      0.7292408377E+00
          0                 2           2             2    2     1      -0.5710005752E-03       2    2    1        -0.3063666908E-01      0.7240141487E-01
          0                 3           1             2    2     1       0.3888300779E-04       2    2    1         0.2144566826E-02      0.5020188255E-02

    ------------------------------------------------
       NWT REQUIRED            3 OUTER ITERATIONS 
       AND A TOTAL OF          5 INNER ITERATIONS.
    ------------------------------------------------

 NO OUTPUT CONTROL FOR STRESS PERIOD   16   TIME STEP   23
 
 SOLVING FOR HEAD 
                                                   Max.-Head-Change                         Max.-Flux-Residual
  Residual-Control   Outer-Iter.   Inner-Iter.     Column Row Layer    Maximum-Head-Change  Column Row Layer    Maximum-Flux-Residual          L2-NORM 
          0                 1           2             2    2     1       0.5835745743E-02       2    2    1         0.3045601342E+00      0.7143370564E+00
          0                 2           2             2    2     1      -0.5676604040E-03       2    2    1        -0.3045611122E-01      0.7097131472E-01
          0                 3           1             2    2     1       0.3865555484E-04       2    2    1         0.2131927790E-02      0.4926018768E-02

    ------------------------------------------------
       NWT REQUIRED            3 OUTER ITERATIONS 
       AND A TOTAL OF          5 INNER ITERATIONS.
    ------------------------------------------------

 NO OUTPUT CONTROL FOR STRESS PERIOD   16   TIME STEP   24
 
 SOLVING FOR HEAD 
                                                   Max.-Head-Change                         Max.-Flux-Residual
  Residual-Control   Outer-Iter.   Inner-Iter.     Column Row Layer    Maximum-Head-Change  Column Row Layer    Maximum-Flux-Residual          L2-NORM 
          0                 1           2             2    2     1       0.5801798600E-02       2    2    1         0.3027751820E+00      0.7008547290E+00
          0                 2           2             2    2     1      -0.5643582480E-03       2    2    1        -0.3027761439E-01      0.6967541544E-01
          0                 3           1             2    2     1       0.3843069038E-04       2    2    1         0.2119433017E-02      0.4838457368E-02

    ------------------------------------------------
       NWT REQUIRED            3 OUTER ITERATIONS 
       AND A TOTAL OF          5 INNER ITERATIONS.
    ------------------------------------------------

 NO OUTPUT CONTROL FOR STRESS PERIOD   16   TIME STEP   25
 
 SOLVING FOR HEAD 
                                                   Max.-Head-Change                         Max.-Flux-Residual
  Residual-Control   Outer-Iter.   Inner-Iter.     Column Row Layer    Maximum-Head-Change  Column Row Layer    Maximum-Flux-Residual          L2-NORM 
          0                 1           2             2    2     1       0.5768322723E-02       2    2    1         0.3010150627E+00      0.6886419751E+00
          0                 2           2             2    2     1      -0.5611019347E-03       2    2    1        -0.3010160092E-01      0.6850246032E-01
          0                 3           1             2    2     1       0.3820894764E-04       2    2    1         0.2107112078E-02      0.4761763940E-02

    ------------------------------------------------
       NWT REQUIRED            3 OUTER ITERATIONS 
       AND A TOTAL OF          5 INNER ITERATIONS.
    ------------------------------------------------

 NO OUTPUT CONTROL FOR STRESS PERIOD   16   TIME STEP   26
 
 SOLVING FOR HEAD 
                                                   Max.-Head-Change                         Max.-Flux-Residual
  Residual-Control   Outer-Iter.   Inner-Iter.     Column Row Layer    Maximum-Head-Change  Column Row Layer    Maximum-Flux-Residual          L2-NORM 
          0                 1           2             2    2     1       0.5735310575E-02       2    2    1         0.2992793782E+00      0.6775453321E+00
          0                 2           2             2    2     1      -0.5578907297E-03       2    2    1        -0.2992803093E-01      0.6743446561E-01
          0                 3           1             2    2     1       0.3799027668E-04       2    2    1         0.2094962191E-02      0.4691117763E-02

    ------------------------------------------------
       NWT REQUIRED            3 OUTER ITERATIONS 
       AND A TOTAL OF          5 INNER ITERATIONS.
    ------------------------------------------------

 NO OUTPUT CONTROL FOR STRESS PERIOD   16   TIME STEP   27
 
 SOLVING FOR HEAD 
                                                   Max.-Head-Change                         Max.-Flux-Residual
  Residual-Control   Outer-Iter.   Inner-Iter.     Column Row Layer    Maximum-Head-Change  Column Row Layer    Maximum-Flux-Residual          L2-NORM 
          0                 1           2             2    2     1       0.5702754732E-02       2    2    1         0.2975677373E+00      0.6674403794E+00
          0                 2           2             2    2     1      -0.5547239117E-03       2    2    1        -0.2975686537E-01      0.6646033095E-01
          0                 3           1             2    2     1       0.3777462899E-04       2    2    1         0.2082980628E-02      0.4626261917E-02

    ------------------------------------------------
       NWT REQUIRED            3 OUTER ITERATIONS 
       AND A TOTAL OF          5 INNER ITERATIONS.
    ------------------------------------------------

 NO OUTPUT CONTROL FOR STRESS PERIOD   16   TIME STEP   28
 
 SOLVING FOR HEAD 
                                                   Max.-Head-Change                         Max.-Flux-Residual
  Residual-Control   Outer-Iter.   Inner-Iter.     Column Row Layer    Maximum-Head-Change  Column Row Layer    Maximum-Flux-Residual          L2-NORM 
          0                 1           2             2    2     1       0.5670647876E-02       2    2    1         0.2958797555E+00      0.6582261153E+00
          0                 2           2             2    2     1      -0.5516007677E-03       2    2    1        -0.2958806571E-01      0.6557081156E-01
          0                 3           1             2    2     1       0.3756195415E-04       2    2    1         0.2071164643E-02      0.4566759881E-02

    ------------------------------------------------
       NWT REQUIRED            3 OUTER ITERATIONS 
       AND A TOTAL OF          5 INNER ITERATIONS.
    ------------------------------------------------

 NO OUTPUT CONTROL FOR STRESS PERIOD   16   TIME STEP   29
 
 SOLVING FOR HEAD 
                                                   Max.-Head-Change                         Max.-Flux-Residual
  Residual-Control   Outer-Iter.   Inner-Iter.     Column Row Layer    Maximum-Head-Change  Column Row Layer    Maximum-Flux-Residual          L2-NORM 
          0                 1           2             2    2     1       0.4934271779E-02       2    2    1         0.2573736035E+00      0.5608753452E+00
          0                 2           2             2    2     1      -0.4799710977E-03       2    2    1        -0.2573742698E-01      0.5607468835E-01
          0                 3           1             2    2     1       0.3268424251E-04       2    2    1         0.1801620044E-02      0.3924258450E-02

    ------------------------------------------------
       NWT REQUIRED            3 OUTER ITERATIONS 
       AND A TOTAL OF          5 INNER ITERATIONS.
    ------------------------------------------------

 NO OUTPUT CONTROL FOR STRESS PERIOD   16   TIME STEP   30



 STREAM LISTING     PERIOD     16   STEP       30

 LAYER ROW COL. STREAM  RCH.  FLOW INTO     FLOW TO   FLOW OUT OF   OVRLND.     DIRECT     STREAM       STREAM     STREAM     STREAM   STREAMBED  STREAMBED
                SEG.NO.  NO.  STRM. RCH.    AQUIFER    STRM. RCH.    RUNOFF     PRECIP       ET          HEAD       DEPTH      WIDTH   CONDCTNC.   GRADIENT

   1    1    1     1     1    6.6341E+01  3.9373E-01   6.5947E+01  0.000E+00  0.000E+00  0.000E+00  1.09465E+03  1.601E+00  1.902E+01  8.558E-02  1.534E+00
   1    2    2     1     2    6.5947E+01  6.0983E-01   6.5338E+01  0.000E+00  0.000E+00  0.000E+00  1.08965E+03  1.595E+00  1.896E+01  1.327E-01  1.532E+00
   1    3    3     1     3    6.5338E+01  5.2015E-01   6.4817E+01  0.000E+00  0.000E+00  0.000E+00  1.08401E+03  1.588E+00  1.889E+01  1.134E-01  1.529E+00
   1    3    4     1     4    6.4817E+01  4.7905E-01   6.4338E+01  0.000E+00  0.000E+00  0.000E+00  1.07899E+03  1.582E+00  1.884E+01  1.045E-01  1.527E+00
   1    4    5     2     1    6.2338E+01  3.9665E-01   6.1942E+01  0.000E+00  0.000E+00  0.000E+00  1.07402E+03  2.085E+00  1.200E+01  7.800E-02  1.695E+00
   1    5    6     2     2    6.1942E+01  3.0469E-01   6.1637E+01  0.000E+00  0.000E+00  0.000E+00  1.06859E+03  2.078E+00  1.200E+01  6.000E-02  1.693E+00
   1    6    6     2     3    6.1637E+01  3.0432E-01   6.1333E+01  0.000E+00  0.000E+00  0.000E+00  1.06386E+03  2.072E+00  1.200E+01  6.000E-02  1.691E+00
   1    7    6     2     4    6.1333E+01  3.0396E-01   6.1029E+01  0.000E+00  0.000E+00  0.000E+00  1.05914E+03  2.066E+00  1.200E+01  6.000E-02  1.689E+00
   1    8    6     2     5    6.1029E+01  3.0359E-01   6.0725E+01  0.000E+00  0.000E+00  0.000E+00  1.05442E+03  2.060E+00  1.200E+01  6.000E-02  1.687E+00
   1    3    5     3     1    2.0000E+00  2.8252E-01   1.7175E+00  0.000E+00  0.000E+00  0.000E+00  1.07555E+03  1.909E+00  9.636E+00  7.227E-02  1.955E+00
   1    3    6     3     2    1.7175E+00  2.4905E-01   1.4684E+00  0.000E+00  0.000E+00  0.000E+00  1.07264E+03  1.727E+00  8.909E+00  6.682E-02  1.864E+00
   1    3    7     3     3    1.4684E+00  1.9718E-01   1.2712E+00  0.000E+00  0.000E+00  0.000E+00  1.06987E+03  1.555E+00  8.218E+00  5.547E-02  1.777E+00
   1    4    8     3     4    1.2712E+00  2.2567E-01   1.0456E+00  0.000E+00  0.000E+00  0.000E+00  1.06682E+03  1.364E+00  7.455E+00  6.709E-02  1.682E+00
   1    5    8     3     5    1.0456E+00  1.5790E-01   8.8768E-01  0.000E+00  0.000E+00  0.000E+00  1.06362E+03  1.164E+00  6.655E+00  4.991E-02  1.582E+00
   1    6    8     3     6    8.8768E-01  5.5980E-02   8.3170E-01  0.000E+00  0.000E+00  0.000E+00  1.06158E+03  1.036E+00  6.145E+00  1.844E-02  1.518E+00
   1    5   10     4     1    1.0000E+01  9.0919E-02   9.9091E+00  0.000E+00  0.000E+00  0.000E+00  1.07836E+03  6.368E-01  1.000E+01  2.500E-02  1.212E+00
   1    5    9     4     2    9.9091E+00  1.8158E-01   9.7275E+00  0.000E+00  0.000E+00  0.000E+00  1.07154E+03  6.315E-01  1.000E+01  5.000E-02  1.211E+00
   1    6    8     4     3    9.7275E+00  1.2689E-01   9.6006E+00  0.000E+00  0.000E+00  0.000E+00  1.06381E+03  6.256E-01  1.000E+01  3.500E-02  1.209E+00
   1    6    8     5     1    1.0432E+01  2.2686E-01   1.0205E+01  0.000E+00  0.000E+00  0.000E+00  1.05868E+03  6.790E-01  1.542E+01  6.166E-02  1.226E+00
   1    7    7     5     2    1.0205E+01  2.7894E-01   9.9265E+00  0.000E+00  0.000E+00  0.000E+00  1.05417E+03  6.732E-01  1.519E+01  7.594E-02  1.224E+00
   1    8    7     5     3    9.9265E+00  1.9221E-01   9.7343E+00  0.000E+00  0.000E+00  0.000E+00  1.04992E+03  6.676E-01  1.497E+01  5.241E-02  1.223E+00
   1    8    6     5     4    9.7343E+00  1.3577E-01   9.5985E+00  0.000E+00  0.000E+00  0.000E+00  1.04691E+03  6.637E-01  1.482E+01  3.706E-02  1.221E+00
   1    9    6     6     1    7.0324E+01  3.1608E-01   7.0008E+01  0.000E+00  0.000E+00  0.000E+00  1.04500E+03  2.268E+00  1.200E+01  6.000E-02  1.756E+00
   1   10    7     6     2    7.0008E+01  3.1571E-01   6.9692E+01  0.000E+00  0.000E+00  0.000E+00  1.04044E+03  2.262E+00  1.200E+01  6.000E-02  1.754E+00
   1   11    7     6     3    6.9692E+01  3.1534E-01   6.9377E+01  0.000E+00  0.000E+00  0.000E+00  1.03589E+03  2.256E+00  1.200E+01  6.000E-02  1.752E+00
   1   12    7     6     4    6.9377E+01  3.1498E-01   6.9062E+01  0.000E+00  0.000E+00  0.000E+00  1.03134E+03  2.250E+00  1.200E+01  6.000E-02  1.750E+00
   1   13    7     6     5    6.9062E+01  2.4304E-02   6.9037E+01  0.000E+00  0.000E+00  0.000E+00  1.02816E+03  2.246E+00  1.200E+01  2.400E-02  3.376E-01
   1   14    9     7     1    1.5000E+02  1.3361E+00   1.4866E+02  0.000E+00  0.000E+00  0.000E+00  1.03987E+03  2.288E+00  5.529E+01  5.593E-01  7.963E-01
   1   13    8     7     2    1.4866E+02  1.8223E+00   1.4684E+02  0.000E+00  0.000E+00  0.000E+00  1.03478E+03  2.279E+00  5.526E+01  6.148E-01  9.881E-01
   1   13    7     7     3    1.4684E+02  1.4226E+00   1.4542E+02  0.000E+00  0.000E+00  0.000E+00  1.02969E+03  2.271E+00  5.522E+01  5.585E-01  8.491E-01
   1   13    6     8     1    2.1446E+02  1.0487E+00   2.1341E+02  0.000E+00  0.000E+00  0.000E+00  1.02509E+03  3.218E+00  4.666E+01  4.755E-01  7.352E-01
   1   13    5     8     2    2.1341E+02  2.3010E-01   2.1318E+02  0.000E+00  0.000E+00  0.000E+00  1.01884E+03  3.214E+00  4.661E+01  4.750E-01  1.615E-01
   1   13    4     8     3    2.1318E+02 -2.4570E+00   2.1563E+02  0.000E+00  0.000E+00  0.000E+00  1.01260E+03  3.221E+00  4.670E+01  4.759E+00 -1.721E-01
   1   13    3     8     4    2.1563E+02 -3.6710E+00   2.1931E+02  0.000E+00  0.000E+00  0.000E+00  1.00636E+03  3.238E+00  4.695E+01  4.784E+00 -2.558E-01
   1   13    2     8     5    2.1931E+02 -2.5650E+00   2.2187E+02  0.000E+00  0.000E+00  0.000E+00  1.00013E+03  3.255E+00  4.720E+01  4.810E+00 -1.778E-01
   1   13    1     8     6    2.2187E+02 -1.9017E+00   2.2377E+02  0.000E+00  0.000E+00  0.000E+00  9.95142E+02  3.267E+00  4.738E+01  2.897E+00 -2.188E-01
   1    8    6     9     1    0.0000E+00  0.0000E+00   0.0000E+00  0.000E+00  0.000E+00  0.000E+00  1.07875E+03  0.000E+00  4.000E+00  0.000E+00  1.000E+00
   1    8    5     9     2    0.0000E+00  0.0000E+00   0.0000E+00  0.000E+00  0.000E+00  0.000E+00  1.07825E+03  0.000E+00  4.000E+00  0.000E+00  1.000E+00





UNSATURATED ZONE PACKAGE VOLUMETRIC BUDGET FOR  TIME STEP    30 STRESS PERIOD   16
  ------------------------------------------------------------------------------



     CUMULATIVE VOLUMES      L**3       RATES FOR THIS TIME STEP      L**3/T
     ------------------                 ------------------------

           IN:                                      IN:
           ---                                      ---
        INFILTRATION =   441582679.7327          INFILTRATION =           0.8475

          OUT:                                     OUT:
          ----                                     ----
              UZF ET =   435945478.0506                UZF ET =           0.7500
        UZF RECHARGE =       73224.0000          UZF RECHARGE =       0.0000E+00

            IN - OUT =     5563977.6821              IN - OUT =       9.7500E-02

          STORAGE:                                 STORAGE:
          --------                                 --------
      STORAGE CHANGE =     5564180.6739        STORAGE CHANGE =       9.7500E-02

 PERCENT DISCREPANCY IS DIFFERENCE BETWEEN IN-OUT MINUS CHANGE IN STORAGE
 DIVIDED BY THE AVERAGE OF IN AND OUT TIMES 100

 PERCENT DISCREPANCY =          -0.00     PERCENT DISCREPANCY =           0.00






1
  VOLUMETRIC BUDGET FOR AGRICULTURAL FIELDS AT  END OF TIME STEP   30, STRESS PERIOD  16
  ------------------------------------------------------------------------------

     CUMULATIVE VOLUMES      L**3       RATES FOR THIS TIME STEP      L**3/T
     ------------------                 ------------------------

           IN:                                      IN:
           ---                                      ---
               AG WELLS  =    49128108.0000                 AG WELLS  =           0.0000
      DIVERSION SEGMENTS =   358973504.0000        DIVERSION SEGMENTS =           0.0000
       IRRIGATION PONDS  =           0.0000         IRRIGATION PONDS  =           0.0000
           GW IRRIGATION =           0.0000             GW IRRIGATION =           0.0000
           SW IRRIGATION =           0.0000             SW IRRIGATION =           0.0000
        SYSTEM LOSSES GW =           0.0000          SYSTEM LOSSES GW =           0.0000
        SYSTEM LOSSES SW =           0.0000          SYSTEM LOSSES SW =           0.0000

                TOTAL IN =   408101600.0000                  TOTAL IN =           0.0000

          OUT:                                     OUT:
          ----                                     ----
               AG WELLS  =           0.0000                 AG WELLS  =           0.0000
      DIVERSION SEGMENTS =           0.0000        DIVERSION SEGMENTS =           0.0000
       IRRIGATION PONDS  =           0.0000         IRRIGATION PONDS  =           0.0000
           GW IRRIGATION =    49128108.0000             GW IRRIGATION =           0.0000
           SW IRRIGATION =   358980608.0000             SW IRRIGATION =           0.0000
        SYSTEM LOSSES GW =           0.0000          SYSTEM LOSSES GW =           0.0000
        SYSTEM LOSSES SW =           0.0000          SYSTEM LOSSES SW =           0.0000

               TOTAL OUT =   408108704.0000                 TOTAL OUT =           0.0000

                IN - OUT =       -7104.0000                  IN - OUT =           0.0000

     PERCENT DISCREPANCY =          -0.00         PERCENT DISCREPANCY =           0.00



1
  VOLUMETRIC BUDGET FOR ENTIRE MODEL AT END OF TIME STEP   30, STRESS PERIOD  16
  ------------------------------------------------------------------------------

     CUMULATIVE VOLUMES      L**3       RATES FOR THIS TIME STEP      L**3/T
     ------------------                 ------------------------

           IN:                                      IN:
           ---                                      ---
             STORAGE     =    92908976.0000               STORAGE     =           0.5557
       CONSTANT HEAD     =           0.0000         CONSTANT HEAD     =           0.0000
     HEAD DEP BOUNDS     =    11297373.0000       HEAD DEP BOUNDS     =           0.2858
      STREAM LEAKAGE     =   472626944.0000        STREAM LEAKAGE     =          13.1636
        UZF RECHARGE     =       73223.9531          UZF RECHARGE     =           0.0000
               GW ET     =           0.0000                 GW ET     =           0.0000
     SURFACE LEAKAGE     =           0.0000       SURFACE LEAKAGE     =           0.0000
           AG WELLS      =           0.0000             AG WELLS      =           0.0000

                TOTAL IN =   576906496.0000                  TOTAL IN =          14.0051

          OUT:                                     OUT:
          ----                                     ----
             STORAGE     =    89908120.0000               STORAGE     =           3.1112
       CONSTANT HEAD     =           0.0000         CONSTANT HEAD     =           0.0000
     HEAD DEP BOUNDS     =    11494839.0000       HEAD DEP BOUNDS     =           0.2964
      STREAM LEAKAGE     =   424836128.0000        STREAM LEAKAGE     =          10.5947
        UZF RECHARGE     =           0.0000          UZF RECHARGE     =           0.0000
               GW ET     =     1544516.7500                 GW ET     =       3.6313E-03
     SURFACE LEAKAGE     =           0.0000       SURFACE LEAKAGE     =           0.0000
           AG WELLS      =    49128108.0000             AG WELLS      =           0.0000

               TOTAL OUT =   576911744.0000                 TOTAL OUT =          14.0059

                IN - OUT =       -5248.0000                  IN - OUT =      -7.2765E-04

     PERCENT DISCREPANCY =          -0.00         PERCENT DISCREPANCY =          -0.01






         TIME SUMMARY AT END OF TIME STEP   30 IN STRESS PERIOD   16
                    SECONDS     MINUTES      HOURS       DAYS        YEARS
                    -----------------------------------------------------------
   TIME STEP LENGTH  87667.      1461.1      24.352      1.0147     2.77799E-03
 STRESS PERIOD TIME 2.63000E+06  43833.      730.56      30.440     8.33397E-02
         TOTAL TIME 3.95364E+07 6.58940E+05  10982.      457.60      1.2528    
1
1
                            STRESS PERIOD NO.   17, LENGTH =   2630000.    
                            -----------------------------------------------

                              NUMBER OF TIME STEPS =    30

                               MULTIPLIER FOR DELT =     1.000

                            INITIAL TIME STEP SIZE =   87666.66    

 REUSING NON-PARAMETER GHB CELLS FROM LAST STRESS PERIOD

      2 GHB CELLS

 REUSING STREAM SEGMENT DATA FROM LAST STRESS PERIOD



            AREAL INFILTRATION RATE
 READING ON UNIT   19 WITH FORMAT: (FREE)              

            1           2           3           4           5           6           7           8           9          10
 ........................................................................................................................
   1   1.0000E-10  2.0000E-10   0.000       0.000       0.000       0.000       0.000       0.000       0.000       0.000    
   2   2.0000E-10  1.0000E-10  2.0000E-10   0.000       0.000      8.0000E-10  8.0000E-10  5.0000E-10   0.000       0.000    
   3    0.000      5.0000E-10  1.0000E-10  1.0000E-10  8.0000E-10  8.0000E-10  5.0000E-10  5.0000E-10   0.000       0.000    
   4   8.0000E-10  5.0000E-10  1.0000E-10  1.0000E-10  1.0000E-10  1.0000E-10  1.0000E-10  1.0000E-10  2.0000E-10   0.000    
   5   8.0000E-10  5.0000E-10  1.0000E-10  1.0000E-10  1.0000E-10  1.0000E-10  1.0000E-10  1.0000E-10  1.0000E-10  1.0000E-10
   6   8.0000E-10  5.0000E-10  5.0000E-10  2.0000E-10  2.0000E-10  1.0000E-10  1.0000E-10  1.0000E-10  1.0000E-10  5.0000E-10
   7   8.0000E-10  5.0000E-10  5.0000E-10  2.0000E-10  2.0000E-10  1.0000E-10  1.0000E-10  2.0000E-10  2.0000E-10   0.000    
   8    0.000      5.0000E-10  5.0000E-10  2.0000E-10  2.0000E-10  1.0000E-10  1.0000E-10  2.0000E-10  5.0000E-10   0.000    
   9    0.000      5.0000E-10  5.0000E-10  2.0000E-10  2.0000E-10  1.0000E-10  1.0000E-10  2.0000E-10  5.0000E-10   0.000    
  10    0.000      5.0000E-10  5.0000E-10  2.0000E-10  2.0000E-10  1.0000E-10  1.0000E-10  2.0000E-10  5.0000E-10  8.0000E-10
  11    0.000      1.0000E-10  1.0000E-10  1.0000E-10  1.0000E-10  1.0000E-10  1.0000E-10  2.0000E-10  5.0000E-10   0.000    
  12   1.0000E-10  1.0000E-10  1.0000E-10  1.0000E-10  1.0000E-10  1.0000E-10  1.0000E-10  1.0000E-10  2.0000E-10   0.000    
  13   1.0000E-10  1.0000E-10  2.0000E-10  2.0000E-10  2.0000E-10  2.0000E-10  2.0000E-10  1.0000E-10  1.0000E-10   0.000    
  14    0.000      2.0000E-10  5.0000E-10  5.0000E-10  5.0000E-10  5.0000E-10  5.0000E-10  2.0000E-10  1.0000E-10   0.000    
  15    0.000       0.000      8.0000E-10  8.0000E-10  8.0000E-10  8.0000E-10   0.000       0.000       0.000       0.000    

                  ET RATE =  2.500000E-08

 USING ET EXTINCTION DEPTH FROM PREVIOUS STRESS PERIOD. CURRENT PERIOD IS:      17

 USING EXTINCTION WATER CONTENT FROM PREVIOUS STRESS PERIOD. CURRENT PERIOD IS:      17

 USING AIR ENTRY PRESSURE FROM PREVIOUS STRESS PERIOD. CURRENT PERIOD IS:      17

 USING ROOT PRESSURE HEAD FROM PREVIOUS STRESS PERIOD. CURRENT PERIOD IS:      17

 USING ROOT ACTIVITY FROM PREVIOUS STRESS PERIOD. CURRENT PERIOD IS:      17

 PROCESSING AG STRESS PERIOD DATA

 READING AG STRESS PERIOD DATA

 READING IRRIGATION SEGMENT

 READING IRRIGATION WELL

 READING SUPPLEMENTAL WELL

 NO IRRPOND OR REUSING IRRPOND DATA FROM LAST STRESS PERIOD

 END PROCESSING AG STRESS PERIOD DATA OPTIONS
 
 SOLVING FOR HEAD 
                                                   Max.-Head-Change                         Max.-Flux-Residual
  Residual-Control   Outer-Iter.   Inner-Iter.     Column Row Layer    Maximum-Head-Change  Column Row Layer    Maximum-Flux-Residual          L2-NORM 
          0                 1           2             4   13     1      -0.8451386811E-02       4   13    1        -0.4982431456E+00      0.8838737008E+00
          0                 2           2             4    7     1      -0.1167196489E-01       5    7    1        -0.6270823987E+00      0.1537027260E+01
          0                 3           2             4    7     1       0.1202481512E-01       5    7    1         0.6638958015E+00      0.1626120402E+01
          0                 4           2             4    7     1      -0.4784838404E-03       5    7    1        -0.2715358490E-01      0.6651027466E-01
          0                 5           1             4    7     1       0.5902634768E-05       5    7    1         0.3442784828E-03      0.8434484554E-03

    ------------------------------------------------
       NWT REQUIRED            5 OUTER ITERATIONS 
       AND A TOTAL OF          9 INNER ITERATIONS.
    ------------------------------------------------

 NO OUTPUT CONTROL FOR STRESS PERIOD   17   TIME STEP    1
 
 SOLVING FOR HEAD 
                                                   Max.-Head-Change                         Max.-Flux-Residual
  Residual-Control   Outer-Iter.   Inner-Iter.     Column Row Layer    Maximum-Head-Change  Column Row Layer    Maximum-Flux-Residual          L2-NORM 
          0                 1           2             4   13     1      -0.5905170453E-02       4   13    1        -0.3486304329E+00      0.6989502576E+00
          0                 2           2             4   13     1       0.5697598525E-03       4   13    1         0.3458698799E-01      0.6894179070E-01
          0                 3           1             4   13     1      -0.3835591511E-04       4   13    1        -0.2394068380E-02      0.4739278002E-02

    ------------------------------------------------
       NWT REQUIRED            3 OUTER ITERATIONS 
       AND A TOTAL OF          5 INNER ITERATIONS.
    ------------------------------------------------

 NO OUTPUT CONTROL FOR STRESS PERIOD   17   TIME STEP    2
 
 SOLVING FOR HEAD 
                                                   Max.-Head-Change                         Max.-Flux-Residual
  Residual-Control   Outer-Iter.   Inner-Iter.     Column Row Layer    Maximum-Head-Change  Column Row Layer    Maximum-Flux-Residual          L2-NORM 
          0                 1           2             3   13     1      -0.5199893254E-02       4   13    1        -0.3068719966E+00      0.6546678337E+00
          0                 2           2             4    7     1      -0.1164422282E-01       5    7    1        -0.6255491274E+00      0.1534768439E+01
          0                 3           2             4    7     1       0.1199693356E-01       5    7    1         0.6623534909E+00      0.1622361019E+01
          0                 4           2             4    7     1      -0.4773736960E-03       5    7    1        -0.2709046434E-01      0.6635727626E-01
          0                 5           1             4    7     1       0.5887583559E-05       5    7    1         0.3433990787E-03      0.8414601611E-03

    ------------------------------------------------
       NWT REQUIRED            5 OUTER ITERATIONS 
       AND A TOTAL OF          9 INNER ITERATIONS.
    ------------------------------------------------

 NO OUTPUT CONTROL FOR STRESS PERIOD   17   TIME STEP    3
 
 SOLVING FOR HEAD 
                                                   Max.-Head-Change                         Max.-Flux-Residual
  Residual-Control   Outer-Iter.   Inner-Iter.     Column Row Layer    Maximum-Head-Change  Column Row Layer    Maximum-Flux-Residual          L2-NORM 
          0                 1           2             3   13     1      -0.4518947330E-02       3   13    1        -0.2633581706E+00      0.6078661423E+00
          0                 2           2             3   13     1       0.4295276753E-03       4   13    1         0.2588395560E-01      0.6011969116E-01
          0                 3           2             4    7     1      -0.1146461610E-01       4    8    1        -0.6157956710E+00      0.1515064868E+01
          0                 4           2             4    7     1       0.1194224579E-01       4    8    1         0.6593206671E+00      0.1615003774E+01
          0                 5           2             4    7     1      -0.4753095814E-03       4    8    1        -0.2697313503E-01      0.6606969984E-01
          0                 6           1             4    7     1       0.5867164058E-05       4    8    1         0.3422051273E-03      0.8382202261E-03

    ------------------------------------------------
       NWT REQUIRED            6 OUTER ITERATIONS 
       AND A TOTAL OF         11 INNER ITERATIONS.
    ------------------------------------------------

 NO OUTPUT CONTROL FOR STRESS PERIOD   17   TIME STEP    4
 
 SOLVING FOR HEAD 
                                                   Max.-Head-Change                         Max.-Flux-Residual
  Residual-Control   Outer-Iter.   Inner-Iter.     Column Row Layer    Maximum-Head-Change  Column Row Layer    Maximum-Flux-Residual          L2-NORM 
          0                 1           2             3   13     1      -0.3910046746E-02       3   13    1        -0.2279367888E+00      0.5689852326E+00
          0                 2           2             1    1     1      -0.3719807326E-03       3   13    1         0.2228573564E-01      0.5636543642E-01
          0                 3           2             4    7     1      -0.1146715303E-01       4    8    1        -0.6159315460E+00      0.1515388231E+01
          0                 4           2             4    7     1       0.1194485059E-01       4    8    1         0.6594644688E+00      0.1615356096E+01
          0                 5           2             4    7     1      -0.4754146550E-03       4    8    1        -0.2697909757E-01      0.6608430927E-01
          0                 6           1             4    7     1       0.5869823315E-05       4    8    1         0.3423602066E-03      0.8386003523E-03

    ------------------------------------------------
       NWT REQUIRED            6 OUTER ITERATIONS 
       AND A TOTAL OF         11 INNER ITERATIONS.
    ------------------------------------------------

 NO OUTPUT CONTROL FOR STRESS PERIOD   17   TIME STEP    5
 
 SOLVING FOR HEAD 
                                                   Max.-Head-Change                         Max.-Flux-Residual
  Residual-Control   Outer-Iter.   Inner-Iter.     Column Row Layer    Maximum-Head-Change  Column Row Layer    Maximum-Flux-Residual          L2-NORM 
          0                 1           2             1    1     1       0.3820297125E-02       1    1    1         0.1983106041E+00      0.5369975798E+00
          0                 2           2             1    1     1      -0.3716111459E-03       1    1    1        -0.1983108750E-01      0.5328226530E-01
          0                 3           2             4    7     1      -0.1146954392E-01       4    8    1        -0.6160596009E+00      0.1515693568E+01
          0                 4           2             4    7     1       0.1194730582E-01       4    8    1         0.6596000142E+00      0.1615688202E+01
          0                 5           2             4    7     1      -0.4755130757E-03       4    8    1        -0.2698468262E-01      0.6609799373E-01
          0                 6           1             4    7     1       0.5871038239E-05       4    8    1         0.3424310544E-03      0.8387737430E-03

    ------------------------------------------------
       NWT REQUIRED            6 OUTER ITERATIONS 
       AND A TOTAL OF         11 INNER ITERATIONS.
    ------------------------------------------------

 NO OUTPUT CONTROL FOR STRESS PERIOD   17   TIME STEP    6
 
 SOLVING FOR HEAD 
                                                   Max.-Head-Change                         Max.-Flux-Residual
  Residual-Control   Outer-Iter.   Inner-Iter.     Column Row Layer    Maximum-Head-Change  Column Row Layer    Maximum-Flux-Residual          L2-NORM 
          0                 1           2             1    1     1       0.3816488755E-02       1    1    1         0.1981124387E+00      0.5109888271E+00
          0                 2           2             1    1     1      -0.3712406940E-03       1    1    1        -0.1981127087E-01      0.5078026933E-01
          0                 3           2             4    7     1      -0.1147180630E-01       4    8    1        -0.6161808548E+00      0.1515983439E+01
          0                 4           2             4    7     1       0.1194962635E-01       4    8    1         0.6597281295E+00      0.1616002088E+01
          0                 5           2             4    7     1      -0.4756040334E-03       4    8    1        -0.2698984445E-01      0.6611063991E-01
          0                 6           1             4    7     1       0.5870797629E-05       4    8    1         0.3424170195E-03      0.8387397961E-03

    ------------------------------------------------
       NWT REQUIRED            6 OUTER ITERATIONS 
       AND A TOTAL OF         11 INNER ITERATIONS.
    ------------------------------------------------

 NO OUTPUT CONTROL FOR STRESS PERIOD   17   TIME STEP    7
 
 SOLVING FOR HEAD 
                                                   Max.-Head-Change                         Max.-Flux-Residual
  Residual-Control   Outer-Iter.   Inner-Iter.     Column Row Layer    Maximum-Head-Change  Column Row Layer    Maximum-Flux-Residual          L2-NORM 
          0                 1           2             1    1     1       0.3812693971E-02       1    1    1         0.1979149809E+00      0.4900938339E+00
          0                 2           2             1    1     1      -0.3708715633E-03       1    1    1        -0.1979152498E-01      0.4877317312E-01
          0                 3           2             4    7     1      -0.1147394793E-01       4    8    1        -0.6162955307E+00      0.1516257885E+01
          0                 4           2             4    7     1       0.1195181987E-01       4    8    1         0.6598492279E+00      0.1616298801E+01
          0                 5           2             4    7     1      -0.4756913377E-03       4    8    1        -0.2699479873E-01      0.6612277974E-01
          0                 6           1             4    7     1       0.5871875222E-05       4    8    1         0.3424798479E-03      0.8388930267E-03

    ------------------------------------------------
       NWT REQUIRED            6 OUTER ITERATIONS 
       AND A TOTAL OF         11 INNER ITERATIONS.
    ------------------------------------------------

 NO OUTPUT CONTROL FOR STRESS PERIOD   17   TIME STEP    8
 
 SOLVING FOR HEAD 
                                                   Max.-Head-Change                         Max.-Flux-Residual
  Residual-Control   Outer-Iter.   Inner-Iter.     Column Row Layer    Maximum-Head-Change  Column Row Layer    Maximum-Flux-Residual          L2-NORM 
          0                 1           2             1    1     1       0.3808935234E-02       1    1    1         0.1977193968E+00      0.4735285051E+00
          0                 2           2             1    1     1      -0.3705059385E-03       1    1    1        -0.1977196643E-01      0.4718204526E-01
          0                 3           2             4    7     1      -0.1147597612E-01       4    8    1        -0.6164041330E+00      0.1516518605E+01
          0                 4           2             4    7     1       0.1195389701E-01       4    8    1         0.6599639008E+00      0.1616579773E+01
          0                 5           2             4    7     1      -0.4757712089E-03       4    8    1        -0.2699933114E-01      0.6613388557E-01
          0                 6           1             4    7     1       0.5870816896E-05       4    8    1         0.3424181414E-03      0.8387423260E-03

    ------------------------------------------------
       NWT REQUIRED            6 OUTER ITERATIONS 
       AND A TOTAL OF         11 INNER ITERATIONS.
    ------------------------------------------------

 NO OUTPUT CONTROL FOR STRESS PERIOD   17   TIME STEP    9
 
 SOLVING FOR HEAD 
                                                   Max.-Head-Change                         Max.-Flux-Residual
  Residual-Control   Outer-Iter.   Inner-Iter.     Column Row Layer    Maximum-Head-Change  Column Row Layer    Maximum-Flux-Residual          L2-NORM 
          0                 1           2             1    1     1       0.3805167410E-02       1    1    1         0.1975233431E+00      0.4605477324E+00
          0                 2           2             1    1     1      -0.3701394302E-03       1    1    1        -0.1975236094E-01      0.4593661435E-01
          0                 3           2             4    7     1      -0.1147790682E-01       4    8    1        -0.6165075073E+00      0.1516766922E+01
          0                 4           2             4    7     1       0.1195587177E-01       4    8    1         0.6600729227E+00      0.1616846885E+01
          0                 5           2             4    7     1      -0.4758505054E-03       4    8    1        -0.2700383109E-01      0.6614490993E-01
          0                 6           1             4    7     1       0.5871795018E-05       4    8    1         0.3424751985E-03      0.8388836201E-03

    ------------------------------------------------
       NWT REQUIRED            6 OUTER ITERATIONS 
       AND A TOTAL OF         11 INNER ITERATIONS.
    ------------------------------------------------

 NO OUTPUT CONTROL FOR STRESS PERIOD   17   TIME STEP   10
 
 SOLVING FOR HEAD 
                                                   Max.-Head-Change                         Max.-Flux-Residual
  Residual-Control   Outer-Iter.   Inner-Iter.     Column Row Layer    Maximum-Head-Change  Column Row Layer    Maximum-Flux-Residual          L2-NORM 
          0                 1           2             1    1     1       0.3801435463E-02       1    1    1         0.1973291572E+00      0.4505232824E+00
          0                 2           2             1    1     1      -0.3697764118E-03       1    1    1        -0.1973294225E-01      0.4497710403E-01
          0                 3           2             4    7     1      -0.1147973722E-01       4    8    1        -0.6166056039E+00      0.1517003077E+01
          0                 4           2             4    7     1       0.1195774399E-01       4    8    1         0.6601762903E+00      0.1617100157E+01
          0                 5           2             4    7     1      -0.4759250218E-03       4    8    1        -0.2700805997E-01      0.6615527240E-01
          0                 6           1             4    7     1       0.5872715117E-05       4    8    1         0.3425288628E-03      0.8390146150E-03

    ------------------------------------------------
       NWT REQUIRED            6 OUTER ITERATIONS 
       AND A TOTAL OF         11 INNER ITERATIONS.
    ------------------------------------------------

 NO OUTPUT CONTROL FOR STRESS PERIOD   17   TIME STEP   11
 
 SOLVING FOR HEAD 
                                                   Max.-Head-Change                         Max.-Flux-Residual
  Residual-Control   Outer-Iter.   Inner-Iter.     Column Row Layer    Maximum-Head-Change  Column Row Layer    Maximum-Flux-Residual          L2-NORM 
          0                 1           2             1    1     1       0.3797694288E-02       1    1    1         0.1971344921E+00      0.4428886980E+00
          0                 2           2             1    1     1      -0.3694124957E-03       1    1    1        -0.1971347562E-01      0.4424025592E-01
          0                 3           2             4    7     1      -0.1148148428E-01       4    8    1        -0.6166991324E+00      0.1517228477E+01
          0                 4           2             4    7     1       0.1195952740E-01       4    8    1         0.6602747485E+00      0.1617341391E+01
          0                 5           2             4    7     1      -0.4759960030E-03       4    8    1        -0.2701208798E-01      0.6616514329E-01
          0                 6           1             4    7     1       0.5873590633E-05       4    8    1         0.3425799277E-03      0.8391405741E-03

    ------------------------------------------------
       NWT REQUIRED            6 OUTER ITERATIONS 
       AND A TOTAL OF         11 INNER ITERATIONS.
    ------------------------------------------------

 NO OUTPUT CONTROL FOR STRESS PERIOD   17   TIME STEP   12
 
 SOLVING FOR HEAD 
                                                   Max.-Head-Change                         Max.-Flux-Residual
  Residual-Control   Outer-Iter.   Inner-Iter.     Column Row Layer    Maximum-Head-Change  Column Row Layer    Maximum-Flux-Residual          L2-NORM 
          0                 1           2             1    1     1       0.3793966378E-02       1    1    1         0.1969405183E+00      0.4371747159E+00
          0                 2           2             1    1     1      -0.3690498698E-03       1    1    1        -0.1969407811E-01      0.4369005332E-01
          0                 3           2             4    7     1      -0.1148314690E-01       4    8    1        -0.6167882370E+00      0.1517443561E+01
          0                 4           2             4    7     1       0.1196122517E-01       4    8    1         0.6603684862E+00      0.1617571058E+01
          0                 5           2             4    7     1      -0.4760656756E-03       4    8    1        -0.2701604210E-01      0.6617482985E-01
          0                 6           1             4    7     1       0.5876494308E-05       4    8    1         0.3427492807E-03      0.8395543036E-03

    ------------------------------------------------
       NWT REQUIRED            6 OUTER ITERATIONS 
       AND A TOTAL OF         11 INNER ITERATIONS.
    ------------------------------------------------

 NO OUTPUT CONTROL FOR STRESS PERIOD   17   TIME STEP   13
 
 SOLVING FOR HEAD 
                                                   Max.-Head-Change                         Max.-Flux-Residual
  Residual-Control   Outer-Iter.   Inner-Iter.     Column Row Layer    Maximum-Head-Change  Column Row Layer    Maximum-Flux-Residual          L2-NORM 
          0                 1           2             1    1     1       0.3790251651E-02       1    1    1         0.1967472322E+00      0.4329774008E+00
          0                 2           2             1    1     1      -0.3686885269E-03       1    1    1        -0.1967474942E-01      0.4328432607E-01
          0                 3           2             4    7     1      -0.1148473575E-01       4    8    1        -0.6168731918E+00      0.1517649160E+01
          0                 4           2             4    7     1       0.1196284450E-01       4    8    1         0.6604578803E+00      0.1617790100E+01
          0                 5           2             4    7     1      -0.4761315267E-03       4    8    1        -0.2701977876E-01      0.6618398582E-01
          0                 6           1             4    7     1       0.5878669433E-05       4    8    1         0.3428761333E-03      0.8398726419E-03

    ------------------------------------------------
       NWT REQUIRED            6 OUTER ITERATIONS 
       AND A TOTAL OF         11 INNER ITERATIONS.
    ------------------------------------------------

 NO OUTPUT CONTROL FOR STRESS PERIOD   17   TIME STEP   14
 
 SOLVING FOR HEAD 
                                                   Max.-Head-Change                         Max.-Flux-Residual
  Residual-Control   Outer-Iter.   Inner-Iter.     Column Row Layer    Maximum-Head-Change  Column Row Layer    Maximum-Flux-Residual          L2-NORM 
          0                 1           2             1    1     1       0.3786572587E-02       1    1    1         0.1965557998E+00      0.4299550918E+00
          0                 2           2             1    1     1      -0.3683306527E-03       1    1    1        -0.1965560607E-01      0.4299050121E-01
          0                 3           2             4    7     1      -0.1148625184E-01       4    8    1        -0.6169543452E+00      0.1517845351E+01
          0                 4           2             4    7     1       0.1196438798E-01       4    8    1         0.6605430942E+00      0.1617998892E+01
          0                 5           2             4    7     1      -0.4761887569E-03       4    8    1        -0.2702302652E-01      0.6619194517E-01
          0                 6           1             4    7     1       0.5875969178E-05       4    8    1         0.3427186498E-03      0.8394791790E-03

    ------------------------------------------------
       NWT REQUIRED            6 OUTER ITERATIONS 
       AND A TOTAL OF         11 INNER ITERATIONS.
    ------------------------------------------------

 NO OUTPUT CONTROL FOR STRESS PERIOD   17   TIME STEP   15
 
 SOLVING FOR HEAD 
                                                   Max.-Head-Change                         Max.-Flux-Residual
  Residual-Control   Outer-Iter.   Inner-Iter.     Column Row Layer    Maximum-Head-Change  Column Row Layer    Maximum-Flux-Residual          L2-NORM 
          0                 1           2             1    1     1       0.3782884024E-02       1    1    1         0.1963638762E+00      0.4278540768E+00
          0                 2           2             1    1     1      -0.3679718542E-03       1    1    1        -0.1963641359E-01      0.4278445130E-01
          0                 3           2             4    7     1      -0.1148770490E-01       4    8    1        -0.6170321251E+00      0.1518034058E+01
          0                 4           2             4    7     1       0.1196586635E-01       5    8    1         0.6606247667E+00      0.1618205443E+01
          0                 5           2             4    7     1      -0.4762510986E-03       4    8    1        -0.2702656438E-01      0.6620098939E-01
          0                 6           1             4    7     1       0.5880144906E-05       4    8    1         0.3429621829E-03      0.8400802252E-03

    ------------------------------------------------
       NWT REQUIRED            6 OUTER ITERATIONS 
       AND A TOTAL OF         11 INNER ITERATIONS.
    ------------------------------------------------

 NO OUTPUT CONTROL FOR STRESS PERIOD   17   TIME STEP   16
 
 SOLVING FOR HEAD 
                                                   Max.-Head-Change                         Max.-Flux-Residual
  Residual-Control   Outer-Iter.   Inner-Iter.     Column Row Layer    Maximum-Head-Change  Column Row Layer    Maximum-Flux-Residual          L2-NORM 
          0                 1           2             1    1     1       0.3779208465E-02       1    1    1         0.1961726303E+00      0.4264467657E+00
          0                 2           2             1    1     1      -0.3676143208E-03       1    1    1        -0.1961728888E-01      0.4264438814E-01
          0                 3           2             4    7     1      -0.1148909272E-01       5    8    1        -0.6171066862E+00      0.1518214289E+01
          0                 4           2             4    7     1       0.1196727874E-01       5    8    1         0.6607028084E+00      0.1618396506E+01
          0                 5           2             4    7     1      -0.4763059123E-03       4    8    1        -0.2702967533E-01      0.6620858785E-01
          0                 6           1             4    7     1       0.5878777416E-05       4    8    1         0.3428824602E-03      0.8398891392E-03

    ------------------------------------------------
       NWT REQUIRED            6 OUTER ITERATIONS 
       AND A TOTAL OF         11 INNER ITERATIONS.
    ------------------------------------------------

 NO OUTPUT CONTROL FOR STRESS PERIOD   17   TIME STEP   17
 
 SOLVING FOR HEAD 
                                                   Max.-Head-Change                         Max.-Flux-Residual
  Residual-Control   Outer-Iter.   Inner-Iter.     Column Row Layer    Maximum-Head-Change  Column Row Layer    Maximum-Flux-Residual          L2-NORM 
          0                 1           2             1    1     1       0.3775545847E-02       1    1    1         0.1959820586E+00      0.4255557414E+00
          0                 2           2             1    1     1      -0.3672580459E-03       1    1    1        -0.1959823159E-01      0.4256928914E-01
          0                 3           2             4    7     1      -0.1149042504E-01       5    8    1        -0.6171787578E+00      0.1518372415E+01
          0                 4           2             4    7     1       0.1196863301E-01       5    8    1         0.6607776313E+00      0.1618584596E+01
          0                 5           2             4    7     1      -0.4763605139E-03       4    8    1        -0.2703277394E-01      0.6621645471E-01
          0                 6           1             4    7     1       0.5880132584E-05       4    8    1         0.3429614585E-03      0.8400782309E-03

    ------------------------------------------------
       NWT REQUIRED            6 OUTER ITERATIONS 
       AND A TOTAL OF         11 INNER ITERATIONS.
    ------------------------------------------------

 NO OUTPUT CONTROL FOR STRESS PERIOD   17   TIME STEP   18
 
 SOLVING FOR HEAD 
                                                   Max.-Head-Change                         Max.-Flux-Residual
  Residual-Control   Outer-Iter.   Inner-Iter.     Column Row Layer    Maximum-Head-Change  Column Row Layer    Maximum-Flux-Residual          L2-NORM 
          0                 1           2             1    1     1       0.3771896105E-02       1    1    1         0.1957921578E+00      0.4250571952E+00
          0                 2           2             1    1     1      -0.3669030243E-03       1    1    1        -0.1957924141E-01      0.4249967302E-01
          0                 3           2             4    7     1      -0.1149170311E-01       5    8    1        -0.6172478790E+00      0.1518553887E+01
          0                 4           2             4    7     1       0.1196992997E-01       5    8    1         0.6608492872E+00      0.1618765589E+01
          0                 5           2             4    7     1      -0.4764135341E-03       4    8    1        -0.2703578285E-01      0.6622408849E-01
          0                 6           1             4    7     1       0.5881468037E-05       4    8    1         0.3430393722E-03      0.8402707262E-03

    ------------------------------------------------
       NWT REQUIRED            6 OUTER ITERATIONS 
       AND A TOTAL OF         11 INNER ITERATIONS.
    ------------------------------------------------

 NO OUTPUT CONTROL FOR STRESS PERIOD   17   TIME STEP   19
 
 SOLVING FOR HEAD 
                                                   Max.-Head-Change                         Max.-Flux-Residual
  Residual-Control   Outer-Iter.   Inner-Iter.     Column Row Layer    Maximum-Head-Change  Column Row Layer    Maximum-Flux-Residual          L2-NORM 
          0                 1           2             1    1     1       0.3768259179E-02       1    1    1         0.1956029247E+00      0.4248377028E+00
          0                 2           2             1    1     1      -0.3665492490E-03       1    1    1        -0.1956031800E-01      0.4247293056E-01
          0                 3           2             4    7     1      -0.1149292987E-01       5    8    1        -0.6173142093E+00      0.1518713466E+01
          0                 4           2             4    7     1       0.1197117305E-01       5    8    1         0.6609179662E+00      0.1618933741E+01
          0                 5           2             4    7     1      -0.4764609091E-03       4    8    1        -0.2703847140E-01      0.6623067396E-01
          0                 6           1             4    7     1       0.5881371255E-05       4    8    1         0.3430337251E-03      0.8402586434E-03

    ------------------------------------------------
       NWT REQUIRED            6 OUTER ITERATIONS 
       AND A TOTAL OF         11 INNER ITERATIONS.
    ------------------------------------------------

 NO OUTPUT CONTROL FOR STRESS PERIOD   17   TIME STEP   20
 
 SOLVING FOR HEAD 
                                                   Max.-Head-Change                         Max.-Flux-Residual
  Residual-Control   Outer-Iter.   Inner-Iter.     Column Row Layer    Maximum-Head-Change  Column Row Layer    Maximum-Flux-Residual          L2-NORM 
          0                 1           2             1    1     1       0.3764635028E-02       1    1    1         0.1954143561E+00      0.4247857745E+00
          0                 2           2             1    1     1      -0.3661967162E-03       1    1    1        -0.1954146102E-01      0.4243556307E-01
          0                 3           2             4    7     1      -0.1149410757E-01       5    8    1        -0.6173778687E+00      0.1518867890E+01
          0                 4           2             4    7     1       0.1197236672E-01       5    8    1         0.6609839150E+00      0.1619096855E+01
          0                 5           2             4    7     1      -0.4765070179E-03       4    8    1        -0.2704108812E-01      0.6623715077E-01
          0                 6           1             4    7     1       0.5879896454E-05       4    8    1         0.3429477160E-03      0.8400457465E-03

    ------------------------------------------------
       NWT REQUIRED            6 OUTER ITERATIONS 
       AND A TOTAL OF         11 INNER ITERATIONS.
    ------------------------------------------------

 NO OUTPUT CONTROL FOR STRESS PERIOD   17   TIME STEP   21
 
 SOLVING FOR HEAD 
                                                   Max.-Head-Change                         Max.-Flux-Residual
  Residual-Control   Outer-Iter.   Inner-Iter.     Column Row Layer    Maximum-Head-Change  Column Row Layer    Maximum-Flux-Residual          L2-NORM 
          0                 1           2             1    1     1       0.3761023567E-02       1    1    1         0.1952264498E+00      0.4249247743E+00
          0                 2           2             1    1     1      -0.3658454176E-03       1    1    1        -0.1952267028E-01      0.4246954472E-01
          0                 3           2             4    7     1      -0.1149524062E-01       5    8    1        -0.6174390972E+00      0.1519014571E+01
          0                 4           2             4    7     1       0.1197351274E-01       5    8    1         0.6610472301E+00      0.1619251876E+01
          0                 5           2             4    7     1      -0.4765554307E-03       4    8    1        -0.2704383561E-01      0.6624388481E-01
          0                 6           1             4    7     1       0.5883900126E-05       4    8    1         0.3431812588E-03      0.8406193313E-03

    ------------------------------------------------
       NWT REQUIRED            6 OUTER ITERATIONS 
       AND A TOTAL OF         11 INNER ITERATIONS.
    ------------------------------------------------

 NO OUTPUT CONTROL FOR STRESS PERIOD   17   TIME STEP   22
 
 SOLVING FOR HEAD 
                                                   Max.-Head-Change                         Max.-Flux-Residual
  Residual-Control   Outer-Iter.   Inner-Iter.     Column Row Layer    Maximum-Head-Change  Column Row Layer    Maximum-Flux-Residual          L2-NORM 
          0                 1           2             1    1     1       0.3757424734E-02       1    1    1         0.1950392015E+00      0.4251142897E+00
          0                 2           2             1    1     1      -0.3654953478E-03       1    1    1        -0.1950394535E-01      0.4248168289E-01
          0                 3           2             4    7     1      -0.1149633240E-01       5    8    1        -0.6174981867E+00      0.1519157074E+01
          0                 4           2             4    7     1       0.1197461672E-01       5    8    1         0.6611082297E+00      0.1619401215E+01
          0                 5           2             4    7     1      -0.4765993698E-03       4    8    1        -0.2704632947E-01      0.6624999770E-01
          0                 6           1             4    7     1       0.5884442507E-05       4    8    1         0.3432128574E-03      0.8407102588E-03

    ------------------------------------------------
       NWT REQUIRED            6 OUTER ITERATIONS 
       AND A TOTAL OF         11 INNER ITERATIONS.
    ------------------------------------------------

 NO OUTPUT CONTROL FOR STRESS PERIOD   17   TIME STEP   23
 
 SOLVING FOR HEAD 
                                                   Max.-Head-Change                         Max.-Flux-Residual
  Residual-Control   Outer-Iter.   Inner-Iter.     Column Row Layer    Maximum-Head-Change  Column Row Layer    Maximum-Flux-Residual          L2-NORM 
          0                 1           2             1    1     1       0.3753838467E-02       1    1    1         0.1948526080E+00      0.4253578142E+00
          0                 2           2             1    1     1      -0.3651464999E-03       1    1    1        -0.1948528588E-01      0.4249940291E-01
          0                 3           2             4    7     1      -0.1149738303E-01       5    8    1        -0.6175549177E+00      0.1519294310E+01
          0                 4           2             4    7     1       0.1197567867E-01       5    8    1         0.6611668986E+00      0.1619544871E+01
          0                 5           2             4    7     1      -0.4766423365E-03       4    8    1        -0.2704876789E-01      0.6625597459E-01
          0                 6           1             4    7     1       0.5884972790E-05       4    8    1         0.3432437957E-03      0.8407728828E-03

    ------------------------------------------------
       NWT REQUIRED            6 OUTER ITERATIONS 
       AND A TOTAL OF         11 INNER ITERATIONS.
    ------------------------------------------------

 NO OUTPUT CONTROL FOR STRESS PERIOD   17   TIME STEP   24
 
 SOLVING FOR HEAD 
                                                   Max.-Head-Change                         Max.-Flux-Residual
  Residual-Control   Outer-Iter.   Inner-Iter.     Column Row Layer    Maximum-Head-Change  Column Row Layer    Maximum-Flux-Residual          L2-NORM 
          0                 1           2             1    1     1       0.3750264731E-02       1    1    1         0.1946666659E+00      0.4256200309E+00
          0                 2           2             1    1     1      -0.3647988715E-03       1    1    1        -0.1946669159E-01      0.4251864856E-01
          0                 3           2             4    7     1      -0.1149839427E-01       5    8    1        -0.6176095058E+00      0.1519425842E+01
          0                 4           2             4    7     1       0.1197669871E-01       5    8    1         0.6612232518E+00      0.1619682815E+01
          0                 5           2             4    7     1      -0.4766787339E-03       4    8    1        -0.2705083351E-01      0.6626103105E-01
          0                 6           1             4    7     1       0.5882015571E-05       4    8    1         0.3430713059E-03      0.8404021370E-03

    ------------------------------------------------
       NWT REQUIRED            6 OUTER ITERATIONS 
       AND A TOTAL OF         11 INNER ITERATIONS.
    ------------------------------------------------

 NO OUTPUT CONTROL FOR STRESS PERIOD   17   TIME STEP   25
 
 SOLVING FOR HEAD 
                                                   Max.-Head-Change                         Max.-Flux-Residual
  Residual-Control   Outer-Iter.   Inner-Iter.     Column Row Layer    Maximum-Head-Change  Column Row Layer    Maximum-Flux-Residual          L2-NORM 
          0                 1           2             1    1     1       0.3746703440E-02       1    1    1         0.1944813736E+00      0.4258867885E+00
          0                 2           2             1    1     1      -0.3644524533E-03       1    1    1        -0.1944816225E-01      0.4253885584E-01
          0                 3           2             4    7     1      -0.1149937098E-01       5    8    1        -0.6176623242E+00      0.1519553492E+01
          0                 4           2             4    7     1       0.1197768438E-01       5    8    1         0.6612777129E+00      0.1619816159E+01
          0                 5           2             4    7     1      -0.4767186643E-03       4    8    1        -0.2705309962E-01      0.6626658632E-01
          0                 6           1             4    7     1       0.5882507992E-05       4    8    1         0.3431000391E-03      0.8404205114E-03

    ------------------------------------------------
       NWT REQUIRED            6 OUTER ITERATIONS 
       AND A TOTAL OF         11 INNER ITERATIONS.
    ------------------------------------------------

 NO OUTPUT CONTROL FOR STRESS PERIOD   17   TIME STEP   26
 
 SOLVING FOR HEAD 
                                                   Max.-Head-Change                         Max.-Flux-Residual
  Residual-Control   Outer-Iter.   Inner-Iter.     Column Row Layer    Maximum-Head-Change  Column Row Layer    Maximum-Flux-Residual          L2-NORM 
          0                 1           2             1    1     1       0.3743154534E-02       1    1    1         0.1942967266E+00      0.4261372293E+00
          0                 2           2             1    1     1      -0.3641072401E-03       1    1    1        -0.1942969744E-01      0.4255748918E-01
          0                 3           2             4    7     1      -0.1150031323E-01       5    8    1        -0.6177131455E+00      0.1519677169E+01
          0                 4           2             4    7     1       0.1197863279E-01       5    8    1         0.6613301069E+00      0.1619944477E+01
          0                 5           2             4    7     1      -0.4767557117E-03       4    8    1        -0.2705520215E-01      0.6627173258E-01
          0                 6           1             4    7     1       0.5881602904E-05       4    8    1         0.3430472520E-03      0.8402908287E-03

    ------------------------------------------------
       NWT REQUIRED            6 OUTER ITERATIONS 
       AND A TOTAL OF         11 INNER ITERATIONS.
    ------------------------------------------------

 NO OUTPUT CONTROL FOR STRESS PERIOD   17   TIME STEP   27
 
 SOLVING FOR HEAD 
                                                   Max.-Head-Change                         Max.-Flux-Residual
  Residual-Control   Outer-Iter.   Inner-Iter.     Column Row Layer    Maximum-Head-Change  Column Row Layer    Maximum-Flux-Residual          L2-NORM 
          0                 1           2             1    1     1       0.3739617979E-02       1    1    1         0.1941127217E+00      0.4263676544E+00
          0                 2           2             1    1     1      -0.3637632285E-03       1    1    1        -0.1941129687E-01      0.4257408060E-01
          0                 3           2             4    7     1      -0.1150122312E-01       5    8    1        -0.6177622034E+00      0.1519796241E+01
          0                 4           2             4    7     1       0.1197954841E-01       5    8    1         0.6613806886E+00      0.1620068334E+01
          0                 5           2             4    7     1      -0.4767942545E-03       4    8    1        -0.2705738980E-01      0.6627708835E-01
          0                 6           1             4    7     1       0.5885484702E-05       4    8    1         0.3432736821E-03      0.8408440183E-03

    ------------------------------------------------
       NWT REQUIRED            6 OUTER ITERATIONS 
       AND A TOTAL OF         11 INNER ITERATIONS.
    ------------------------------------------------

 NO OUTPUT CONTROL FOR STRESS PERIOD   17   TIME STEP   28
 
 SOLVING FOR HEAD 
                                                   Max.-Head-Change                         Max.-Flux-Residual
  Residual-Control   Outer-Iter.   Inner-Iter.     Column Row Layer    Maximum-Head-Change  Column Row Layer    Maximum-Flux-Residual          L2-NORM 
          0                 1           2             1    1     1       0.3736093691E-02       1    1    1         0.1939293573E+00      0.4265593004E+00
          0                 2           2             1    1     1      -0.3634204095E-03       1    1    1        -0.1939296030E-01      0.4258766494E-01
          0                 3           2             4    7     1      -0.1150210328E-01       5    8    1        -0.6178096519E+00      0.1519911055E+01
          0                 4           2             4    7     1       0.1198043177E-01       5    8    1         0.6614294888E+00      0.1620187826E+01
          0                 5           2             4    7     1      -0.4768308136E-03       4    8    1        -0.2705946432E-01      0.6628218331E-01
          0                 6           1             4    7     1       0.5887298687E-05       4    8    1         0.3433794545E-03      0.8411082663E-03

    ------------------------------------------------
       NWT REQUIRED            6 OUTER ITERATIONS 
       AND A TOTAL OF         11 INNER ITERATIONS.
    ------------------------------------------------

 NO OUTPUT CONTROL FOR STRESS PERIOD   17   TIME STEP   29
 
 SOLVING FOR HEAD 
                                                   Max.-Head-Change                         Max.-Flux-Residual
  Residual-Control   Outer-Iter.   Inner-Iter.     Column Row Layer    Maximum-Head-Change  Column Row Layer    Maximum-Flux-Residual          L2-NORM 
          0                 1           2             1    1     1       0.3263040394E-02       1    1    1         0.1693568379E+00      0.3963777450E+00
          0                 2           2             1    1     1      -0.3174051060E-03       1    1    1        -0.1693570067E-01      0.3947953665E-01
          0                 3           2             4    7     1      -0.1150295354E-01       5    8    1        -0.6178554460E+00      0.1520066193E+01
          0                 4           2             4    7     1       0.1198128683E-01       5    8    1         0.6614767228E+00      0.1620284962E+01
          0                 5           2             4    7     1      -0.4768655456E-03       4    8    1        -0.2706143544E-01      0.6628605016E-01
          0                 6           1             4    7     1       0.5887726364E-05       4    8    1         0.3434044343E-03      0.8411593202E-03

    ------------------------------------------------
       NWT REQUIRED            6 OUTER ITERATIONS 
       AND A TOTAL OF         11 INNER ITERATIONS.
    ------------------------------------------------

 NO OUTPUT CONTROL FOR STRESS PERIOD   17   TIME STEP   30



 STREAM LISTING     PERIOD     17   STEP       30

 LAYER ROW COL. STREAM  RCH.  FLOW INTO     FLOW TO   FLOW OUT OF   OVRLND.     DIRECT     STREAM       STREAM     STREAM     STREAM   STREAMBED  STREAMBED
                SEG.NO.  NO.  STRM. RCH.    AQUIFER    STRM. RCH.    RUNOFF     PRECIP       ET          HEAD       DEPTH      WIDTH   CONDCTNC.   GRADIENT

   1    1    1     1     1    4.9431E+01  3.3436E-01   4.9097E+01  0.000E+00  0.000E+00  0.000E+00  1.09444E+03  1.395E+00  1.690E+01  7.607E-02  1.465E+00
   1    2    2     1     2    4.9097E+01  5.1808E-01   4.8579E+01  0.000E+00  0.000E+00  0.000E+00  1.08945E+03  1.393E+00  1.685E+01  1.179E-01  1.464E+00
   1    3    3     1     3    4.8579E+01  4.4210E-01   4.8137E+01  0.000E+00  0.000E+00  0.000E+00  1.08381E+03  1.390E+00  1.679E+01  1.007E-01  1.463E+00
   1    3    4     1     4    4.8137E+01  4.0732E-01   4.7729E+01  0.000E+00  0.000E+00  0.000E+00  1.07879E+03  1.387E+00  1.673E+01  9.285E-02  1.462E+00
   1    4    5     2     1    4.5729E+01  3.6899E-01   4.5360E+01  0.000E+00  0.000E+00  0.000E+00  1.07366E+03  1.731E+00  1.200E+01  7.800E-02  1.577E+00
   1    5    6     2     2    4.5360E+01  2.8339E-01   4.5077E+01  0.000E+00  0.000E+00  0.000E+00  1.06823E+03  1.723E+00  1.200E+01  6.000E-02  1.574E+00
   1    6    6     2     3    4.5077E+01  2.8300E-01   4.4794E+01  0.000E+00  0.000E+00  0.000E+00  1.06351E+03  1.717E+00  1.200E+01  6.000E-02  1.572E+00
   1    7    6     2     4    4.4794E+01  2.8261E-01   4.4511E+01  0.000E+00  0.000E+00  0.000E+00  1.05879E+03  1.710E+00  1.200E+01  6.000E-02  1.570E+00
   1    8    6     2     5    4.4511E+01  2.8222E-01   4.4229E+01  0.000E+00  0.000E+00  0.000E+00  1.05406E+03  1.704E+00  1.200E+01  6.000E-02  1.568E+00
   1    3    5     3     1    2.0000E+00  2.8252E-01   1.7175E+00  0.000E+00  0.000E+00  0.000E+00  1.07555E+03  1.909E+00  9.636E+00  7.227E-02  1.955E+00
   1    3    6     3     2    1.7175E+00  2.4905E-01   1.4684E+00  0.000E+00  0.000E+00  0.000E+00  1.07264E+03  1.727E+00  8.909E+00  6.682E-02  1.864E+00
   1    3    7     3     3    1.4684E+00  1.9718E-01   1.2712E+00  0.000E+00  0.000E+00  0.000E+00  1.06987E+03  1.555E+00  8.218E+00  5.547E-02  1.777E+00
   1    4    8     3     4    1.2712E+00  2.2567E-01   1.0456E+00  0.000E+00  0.000E+00  0.000E+00  1.06682E+03  1.364E+00  7.455E+00  6.709E-02  1.682E+00
   1    5    8     3     5    1.0456E+00  1.5790E-01   8.8768E-01  0.000E+00  0.000E+00  0.000E+00  1.06362E+03  1.164E+00  6.655E+00  4.991E-02  1.582E+00
   1    6    8     3     6    8.8768E-01  5.5980E-02   8.3170E-01  0.000E+00  0.000E+00  0.000E+00  1.06158E+03  1.036E+00  6.145E+00  1.844E-02  1.518E+00
   1    5   10     4     1    1.0000E+01  9.0919E-02   9.9091E+00  0.000E+00  0.000E+00  0.000E+00  1.07836E+03  6.368E-01  1.000E+01  2.500E-02  1.212E+00
   1    5    9     4     2    9.9091E+00  1.8158E-01   9.7275E+00  0.000E+00  0.000E+00  0.000E+00  1.07154E+03  6.315E-01  1.000E+01  5.000E-02  1.211E+00
   1    6    8     4     3    9.7275E+00  1.2689E-01   9.6006E+00  0.000E+00  0.000E+00  0.000E+00  1.06381E+03  6.256E-01  1.000E+01  3.500E-02  1.209E+00
   1    6    8     5     1    1.0432E+01  2.2686E-01   1.0205E+01  0.000E+00  0.000E+00  0.000E+00  1.05868E+03  6.790E-01  1.542E+01  6.166E-02  1.226E+00
   1    7    7     5     2    1.0205E+01  2.7894E-01   9.9265E+00  0.000E+00  0.000E+00  0.000E+00  1.05417E+03  6.732E-01  1.519E+01  7.594E-02  1.224E+00
   1    8    7     5     3    9.9265E+00  1.9221E-01   9.7343E+00  0.000E+00  0.000E+00  0.000E+00  1.04992E+03  6.676E-01  1.497E+01  5.241E-02  1.223E+00
   1    8    6     5     4    9.7343E+00  1.3577E-01   9.5985E+00  0.000E+00  0.000E+00  0.000E+00  1.04691E+03  6.637E-01  1.482E+01  3.706E-02  1.221E+00
   1    9    6     6     1    5.0118E+01  2.9101E-01   4.9827E+01  0.000E+00  0.000E+00  0.000E+00  1.04458E+03  1.850E+00  1.200E+01  6.000E-02  1.617E+00
   1   10    7     6     2    4.9827E+01  2.9062E-01   4.9537E+01  0.000E+00  0.000E+00  0.000E+00  1.04003E+03  1.844E+00  1.200E+01  6.000E-02  1.615E+00
   1   11    7     6     3    4.9537E+01  2.9023E-01   4.9247E+01  0.000E+00  0.000E+00  0.000E+00  1.03547E+03  1.837E+00  1.200E+01  6.000E-02  1.612E+00
   1   12    7     6     4    4.9247E+01  2.8984E-01   4.8957E+01  0.000E+00  0.000E+00  0.000E+00  1.03092E+03  1.831E+00  1.200E+01  6.000E-02  1.610E+00
   1   13    7     6     5    4.8957E+01  1.3896E-02   4.8943E+01  0.000E+00  0.000E+00  0.000E+00  1.02774E+03  1.827E+00  1.200E+01  2.400E-02  1.930E-01
   1   14    9     7     1    1.5000E+02  1.3362E+00   1.4866E+02  0.000E+00  0.000E+00  0.000E+00  1.03987E+03  2.288E+00  5.529E+01  5.593E-01  7.963E-01
   1   13    8     7     2    1.4866E+02  1.8198E+00   1.4684E+02  0.000E+00  0.000E+00  0.000E+00  1.03478E+03  2.279E+00  5.526E+01  6.148E-01  9.867E-01
   1   13    7     7     3    1.4684E+02  1.4144E+00   1.4543E+02  0.000E+00  0.000E+00  0.000E+00  1.02969E+03  2.271E+00  5.522E+01  5.585E-01  8.442E-01
   1   13    6     8     1    1.9437E+02  9.5288E-01   1.9342E+02  0.000E+00  0.000E+00  0.000E+00  1.02498E+03  3.101E+00  4.497E+01  4.583E-01  6.931E-01
   1   13    5     8     2    1.9342E+02  1.6448E-01   1.9326E+02  0.000E+00  0.000E+00  0.000E+00  1.01872E+03  3.098E+00  4.492E+01  4.578E-01  1.198E-01
   1   13    4     8     3    1.9326E+02 -2.5974E+00   1.9585E+02  0.000E+00  0.000E+00  0.000E+00  1.01248E+03  3.105E+00  4.503E+01  4.589E+00 -1.887E-01
   1   13    3     8     4    1.9585E+02 -3.7492E+00   1.9960E+02  0.000E+00  0.000E+00  0.000E+00  1.00625E+03  3.124E+00  4.530E+01  4.616E+00 -2.707E-01
   1   13    2     8     5    1.9960E+02 -2.7057E+00   2.0231E+02  0.000E+00  0.000E+00  0.000E+00  1.00002E+03  3.143E+00  4.558E+01  4.645E+00 -1.942E-01
   1   13    1     8     6    2.0231E+02 -2.0667E+00   2.0437E+02  0.000E+00  0.000E+00  0.000E+00  9.95032E+02  3.157E+00  4.578E+01  2.799E+00 -2.461E-01
   1    8    6     9     1    3.7093E+00  0.0000E+00   3.7093E+00  0.000E+00  0.000E+00  0.000E+00  1.08000E+03  1.250E+00  4.000E+00  0.000E+00  1.417E+00
   1    8    5     9     2    3.7093E+00  0.0000E+00   3.7093E+00  0.000E+00  0.000E+00  0.000E+00  1.07950E+03  1.250E+00  4.000E+00  0.000E+00  1.417E+00





UNSATURATED ZONE PACKAGE VOLUMETRIC BUDGET FOR  TIME STEP    30 STRESS PERIOD   17
  ------------------------------------------------------------------------------



     CUMULATIVE VOLUMES      L**3       RATES FOR THIS TIME STEP      L**3/T
     ------------------                 ------------------------

           IN:                                      IN:
           ---                                      ---
        INFILTRATION =   453560357.0912          INFILTRATION =           4.5569

          OUT:                                     OUT:
          ----                                     ----
              UZF ET =   448652244.5676                UZF ET =           4.5675
        UZF RECHARGE =       73224.0000          UZF RECHARGE =       0.0000E+00

            IN - OUT =     4834888.5236              IN - OUT =      -1.0599E-02

          STORAGE:                                 STORAGE:
          --------                                 --------
      STORAGE CHANGE =     4835090.8828        STORAGE CHANGE =      -1.0599E-02

 PERCENT DISCREPANCY IS DIFFERENCE BETWEEN IN-OUT MINUS CHANGE IN STORAGE
 DIVIDED BY THE AVERAGE OF IN AND OUT TIMES 100

 PERCENT DISCREPANCY =          -0.00     PERCENT DISCREPANCY =          -0.00






1
  VOLUMETRIC BUDGET FOR AGRICULTURAL FIELDS AT  END OF TIME STEP   30, STRESS PERIOD  17
  ------------------------------------------------------------------------------

     CUMULATIVE VOLUMES      L**3       RATES FOR THIS TIME STEP      L**3/T
     ------------------                 ------------------------

           IN:                                      IN:
           ---                                      ---
               AG WELLS  =    49128108.0000                 AG WELLS  =           0.0000
      DIVERSION SEGMENTS =   368721984.0000        DIVERSION SEGMENTS =           3.7093
       IRRIGATION PONDS  =           0.0000         IRRIGATION PONDS  =           0.0000
           GW IRRIGATION =           0.0000             GW IRRIGATION =           0.0000
           SW IRRIGATION =           0.0000             SW IRRIGATION =           0.0000
        SYSTEM LOSSES GW =           0.0000          SYSTEM LOSSES GW =           0.0000
        SYSTEM LOSSES SW =           0.0000          SYSTEM LOSSES SW =           0.0000

                TOTAL IN =   417850080.0000                  TOTAL IN =           3.7093

          OUT:                                     OUT:
          ----                                     ----
               AG WELLS  =           0.0000                 AG WELLS  =           0.0000
      DIVERSION SEGMENTS =           0.0000        DIVERSION SEGMENTS =           0.0000
       IRRIGATION PONDS  =           0.0000         IRRIGATION PONDS  =           0.0000
           GW IRRIGATION =    49128108.0000             GW IRRIGATION =           0.0000
           SW IRRIGATION =   368729312.0000             SW IRRIGATION =           3.7094
        SYSTEM LOSSES GW =           0.0000          SYSTEM LOSSES GW =           0.0000
        SYSTEM LOSSES SW =           0.0000          SYSTEM LOSSES SW =           0.0000

               TOTAL OUT =   417857408.0000                 TOTAL OUT =           3.7094

                IN - OUT =       -7328.0000                  IN - OUT =      -7.3910E-05

     PERCENT DISCREPANCY =          -0.00         PERCENT DISCREPANCY =          -0.00



1
  VOLUMETRIC BUDGET FOR ENTIRE MODEL AT END OF TIME STEP   30, STRESS PERIOD  17
  ------------------------------------------------------------------------------

     CUMULATIVE VOLUMES      L**3       RATES FOR THIS TIME STEP      L**3/T
     ------------------                 ------------------------

           IN:                                      IN:
           ---                                      ---
             STORAGE     =    95013600.0000               STORAGE     =           0.8863
       CONSTANT HEAD     =           0.0000         CONSTANT HEAD     =           0.0000
     HEAD DEP BOUNDS     =    12048981.0000       HEAD DEP BOUNDS     =           0.2858
      STREAM LEAKAGE     =   506092064.0000        STREAM LEAKAGE     =          12.4669
        UZF RECHARGE     =       73223.9531          UZF RECHARGE     =           0.0000
               GW ET     =           0.0000                 GW ET     =           0.0000
     SURFACE LEAKAGE     =           0.0000       SURFACE LEAKAGE     =           0.0000
           AG WELLS      =           0.0000             AG WELLS      =           0.0000

                TOTAL IN =   613227840.0000                  TOTAL IN =          13.6390

          OUT:                                     OUT:
          ----                                     ----
             STORAGE     =    96260736.0000               STORAGE     =           2.0909
       CONSTANT HEAD     =           0.0000         CONSTANT HEAD     =           0.0000
     HEAD DEP BOUNDS     =    12272608.0000       HEAD DEP BOUNDS     =           0.2953
      STREAM LEAKAGE     =   453562336.0000        STREAM LEAKAGE     =          11.1190
        UZF RECHARGE     =           0.0000          UZF RECHARGE     =           0.0000
               GW ET     =     2009193.2500                 GW ET     =           0.1338
     SURFACE LEAKAGE     =           0.0000       SURFACE LEAKAGE     =           0.0000
           AG WELLS      =    49128108.0000             AG WELLS      =           0.0000

               TOTAL OUT =   613233024.0000                 TOTAL OUT =          13.6390

                IN - OUT =       -5184.0000                  IN - OUT =       3.3379E-05

     PERCENT DISCREPANCY =          -0.00         PERCENT DISCREPANCY =           0.00






         TIME SUMMARY AT END OF TIME STEP   30 IN STRESS PERIOD   17
                    SECONDS     MINUTES      HOURS       DAYS        YEARS
                    -----------------------------------------------------------
   TIME STEP LENGTH  87667.      1461.1      24.352      1.0147     2.77799E-03
 STRESS PERIOD TIME 2.63000E+06  43833.      730.56      30.440     8.33397E-02
         TOTAL TIME 4.21664E+07 7.02774E+05  11713.      488.04      1.3362    
1
1
                            STRESS PERIOD NO.   18, LENGTH =   2630000.    
                            -----------------------------------------------

                              NUMBER OF TIME STEPS =    30

                               MULTIPLIER FOR DELT =     1.000

                            INITIAL TIME STEP SIZE =   87666.66    

 REUSING NON-PARAMETER GHB CELLS FROM LAST STRESS PERIOD

      2 GHB CELLS

 REUSING STREAM SEGMENT DATA FROM LAST STRESS PERIOD



            AREAL INFILTRATION RATE
 READING ON UNIT   19 WITH FORMAT: (FREE)              

            1           2           3           4           5           6           7           8           9          10
 ........................................................................................................................
   1   1.0000E-10  2.0000E-10   0.000       0.000       0.000       0.000       0.000       0.000       0.000       0.000    
   2   2.0000E-10  1.0000E-10  2.0000E-10   0.000       0.000      8.0000E-10  8.0000E-10  5.0000E-10   0.000       0.000    
   3    0.000      5.0000E-10  1.0000E-10  1.0000E-10  8.0000E-10  8.0000E-10  5.0000E-10  5.0000E-10   0.000       0.000    
   4   8.0000E-10  5.0000E-10  1.0000E-10  1.0000E-10  1.0000E-10  1.0000E-10  1.0000E-10  1.0000E-10  2.0000E-10   0.000    
   5   8.0000E-10  5.0000E-10  1.0000E-10  1.0000E-10  1.0000E-10  1.0000E-10  1.0000E-10  1.0000E-10  1.0000E-10  1.0000E-10
   6   8.0000E-10  5.0000E-10  5.0000E-10  2.0000E-10  2.0000E-10  1.0000E-10  1.0000E-10  1.0000E-10  1.0000E-10  5.0000E-10
   7   8.0000E-10  5.0000E-10  5.0000E-10  2.0000E-10  2.0000E-10  1.0000E-10  1.0000E-10  2.0000E-10  2.0000E-10   0.000    
   8    0.000      5.0000E-10  5.0000E-10  2.0000E-10  2.0000E-10  1.0000E-10  1.0000E-10  2.0000E-10  5.0000E-10   0.000    
   9    0.000      5.0000E-10  5.0000E-10  2.0000E-10  2.0000E-10  1.0000E-10  1.0000E-10  2.0000E-10  5.0000E-10   0.000    
  10    0.000      5.0000E-10  5.0000E-10  2.0000E-10  2.0000E-10  1.0000E-10  1.0000E-10  2.0000E-10  5.0000E-10  8.0000E-10
  11    0.000      1.0000E-10  1.0000E-10  1.0000E-10  1.0000E-10  1.0000E-10  1.0000E-10  2.0000E-10  5.0000E-10   0.000    
  12   1.0000E-10  1.0000E-10  1.0000E-10  1.0000E-10  1.0000E-10  1.0000E-10  1.0000E-10  1.0000E-10  2.0000E-10   0.000    
  13   1.0000E-10  1.0000E-10  2.0000E-10  2.0000E-10  2.0000E-10  2.0000E-10  2.0000E-10  1.0000E-10  1.0000E-10   0.000    
  14    0.000      2.0000E-10  5.0000E-10  5.0000E-10  5.0000E-10  5.0000E-10  5.0000E-10  2.0000E-10  1.0000E-10   0.000    
  15    0.000       0.000      8.0000E-10  8.0000E-10  8.0000E-10  8.0000E-10   0.000       0.000       0.000       0.000    

                  ET RATE =  5.000000E-08

 USING ET EXTINCTION DEPTH FROM PREVIOUS STRESS PERIOD. CURRENT PERIOD IS:      18

 USING EXTINCTION WATER CONTENT FROM PREVIOUS STRESS PERIOD. CURRENT PERIOD IS:      18

 USING AIR ENTRY PRESSURE FROM PREVIOUS STRESS PERIOD. CURRENT PERIOD IS:      18

 USING ROOT PRESSURE HEAD FROM PREVIOUS STRESS PERIOD. CURRENT PERIOD IS:      18

 USING ROOT ACTIVITY FROM PREVIOUS STRESS PERIOD. CURRENT PERIOD IS:      18

 PROCESSING AG STRESS PERIOD DATA

 READING AG STRESS PERIOD DATA

 READING IRRIGATION SEGMENT

 READING IRRIGATION WELL

 READING SUPPLEMENTAL WELL

 NO IRRPOND OR REUSING IRRPOND DATA FROM LAST STRESS PERIOD

 END PROCESSING AG STRESS PERIOD DATA OPTIONS
 
 SOLVING FOR HEAD 
                                                   Max.-Head-Change                         Max.-Flux-Residual
  Residual-Control   Outer-Iter.   Inner-Iter.     Column Row Layer    Maximum-Head-Change  Column Row Layer    Maximum-Flux-Residual          L2-NORM 
          0                 1           2             4   13     1      -0.5473094693E-02       4   13    1        -0.3269584029E+00      0.6644332225E+00
          0                 2           2             4    7     1      -0.9964941391E-02       4    7    1        -0.5351874663E+00      0.1311945154E+01
          0                 3           2             4    7     1       0.1026227741E-01       4    7    1         0.5665728142E+00      0.1387757123E+01
          0                 4           2             4    7     1      -0.4083529653E-03       4    7    1        -0.2317328512E-01      0.5676147035E-01
          0                 5           1             4    7     1       0.5040616534E-05       4    7    1         0.2939946694E-03      0.7202963044E-03

    ------------------------------------------------
       NWT REQUIRED            5 OUTER ITERATIONS 
       AND A TOTAL OF          9 INNER ITERATIONS.
    ------------------------------------------------

 NO OUTPUT CONTROL FOR STRESS PERIOD   18   TIME STEP    1
 
 SOLVING FOR HEAD 
                                                   Max.-Head-Change                         Max.-Flux-Residual
  Residual-Control   Outer-Iter.   Inner-Iter.     Column Row Layer    Maximum-Head-Change  Column Row Layer    Maximum-Flux-Residual          L2-NORM 
          0                 1           2             1    1     1       0.3128106369E-02       1    1    1         0.1623474565E+00      0.4099850138E+00
          0                 2           2             1    1     1      -0.3042796748E-03       1    1    1        -0.1623476056E-01      0.4071339441E-01
          0                 3           2             4    7     1      -0.5924622893E-02       5    8    1        -0.3182603413E+00      0.7830469148E+00
          0                 4           2             4    7     1       0.5743969524E-02       5    8    1         0.3171222436E+00      0.7767863763E+00
          0                 5           1             4    7     1       0.2869273487E-04       4    7    1         0.1584075723E-02      0.4369887014E-02

    ------------------------------------------------
       NWT REQUIRED            5 OUTER ITERATIONS 
       AND A TOTAL OF          9 INNER ITERATIONS.
    ------------------------------------------------

 NO OUTPUT CONTROL FOR STRESS PERIOD   18   TIME STEP    2
 
 SOLVING FOR HEAD 
                                                   Max.-Head-Change                         Max.-Flux-Residual
  Residual-Control   Outer-Iter.   Inner-Iter.     Column Row Layer    Maximum-Head-Change  Column Row Layer    Maximum-Flux-Residual          L2-NORM 
          0                 1           2             1    1     1       0.3125622161E-02       1    1    1         0.1622182405E+00      0.3955210549E+00
          0                 2           2             4    7     1      -0.1674639414E-01       4    7    1        -0.8994048092E+00      0.2210242871E+01
          0                 3           2             4    7     1      -0.2783388328E-02       5    8    1        -0.1495528473E+00      0.4341100814E+00
          0                 4           2             4    7     1       0.2021932261E-01       5    8    1         0.1116288892E+01      0.2734426246E+01
          0                 5           2             4    7     1      -0.8047461294E-03       4    8    1        -0.4566840345E-01      0.1118729313E+00
          0                 6           1             4    7     1       0.9935675571E-05       4    8    1         0.5795051698E-03      0.1420707759E-02

    ------------------------------------------------
       NWT REQUIRED            6 OUTER ITERATIONS 
       AND A TOTAL OF         11 INNER ITERATIONS.
    ------------------------------------------------

 NO OUTPUT CONTROL FOR STRESS PERIOD   18   TIME STEP    3
 
 SOLVING FOR HEAD 
                                                   Max.-Head-Change                         Max.-Flux-Residual
  Residual-Control   Outer-Iter.   Inner-Iter.     Column Row Layer    Maximum-Head-Change  Column Row Layer    Maximum-Flux-Residual          L2-NORM 
          0                 1           2             1    1     1       0.3123123357E-02       1    1    1         0.1620882661E+00      0.3696572473E+00
          0                 2           2             1    1     1      -0.3037949617E-03       1    1    1        -0.1620884139E-01      0.3686861235E-01
          0                 3           2             4    7     1      -0.8322989876E-02       5    8    1        -0.4470710206E+00      0.1099908280E+01
          0                 4           2             4    7     1       0.8336515388E-02       5    8    1         0.4602536323E+00      0.1127380960E+01
          0                 5           2             4    7     1      -0.1901961725E-02       4    8    1        -0.1079322463E+00      0.2655278513E+00
          0                 6           2             4    7     1       0.1676359744E-02       5    6    1         0.9777311802E-01      0.2394998083E+00
          0                 7           2             4    7     1      -0.1783139148E-02       4    8    1        -0.1068820272E+00      0.2632292199E+00
          0                 8           2             4    7     1       0.1868330731E-02       5    6    1         0.1150807534E+00      0.2818910303E+00
          0                 9           2             4    7     1       0.1252192873E-03       5    6    1         0.7712864232E-02      0.1889257606E-01
          0                10           1             4    7     1       0.8390941466E-05       5    7    1         0.5168333109E-03      0.1265977792E-02

    ------------------------------------------------
       NWT REQUIRED           10 OUTER ITERATIONS 
       AND A TOTAL OF         19 INNER ITERATIONS.
    ------------------------------------------------

 NO OUTPUT CONTROL FOR STRESS PERIOD   18   TIME STEP    4
 
 SOLVING FOR HEAD 
                                                   Max.-Head-Change                         Max.-Flux-Residual
  Residual-Control   Outer-Iter.   Inner-Iter.     Column Row Layer    Maximum-Head-Change  Column Row Layer    Maximum-Flux-Residual          L2-NORM 
          0                 1           2             1    1     1       0.3120632526E-02       1    1    1         0.1619587072E+00      0.3617087761E+00
          0                 2           2             4    7     1      -0.5649437819E-02       4    7    1        -0.3034114815E+00      0.7452751033E+00
          0                 3           2             4    7     1      -0.7347429476E-02       5    8    1        -0.3946773433E+00      0.9794672394E+00
          0                 4           2             4    7     1       0.1309289241E-01       5    8    1         0.7228475766E+00      0.1770636863E+01
          0                 5           2             4    7     1      -0.2396485116E-02       4    8    1        -0.1359955089E+00      0.3343948994E+00
          0                 6           2             4    7     1       0.1053228855E-02       5    6    1         0.6142922172E-01      0.1510920692E+00
          0                 7           2             4    7     1       0.1126190039E-02       5    6    1         0.6568399076E-01      0.1608930987E+00
          0                 8           1             4    7     1       0.1653476302E-04       5    6    1         0.9643659259E-03      0.2362207352E-02

    ------------------------------------------------
       NWT REQUIRED            8 OUTER ITERATIONS 
       AND A TOTAL OF         15 INNER ITERATIONS.
    ------------------------------------------------

 NO OUTPUT CONTROL FOR STRESS PERIOD   18   TIME STEP    5
 
 SOLVING FOR HEAD 
                                                   Max.-Head-Change                         Max.-Flux-Residual
  Residual-Control   Outer-Iter.   Inner-Iter.     Column Row Layer    Maximum-Head-Change  Column Row Layer    Maximum-Flux-Residual          L2-NORM 
          0                 1           2             1    1     1       0.3118149639E-02       1    1    1         0.1618295617E+00      0.3547297486E+00
          0                 2           2             4    7     1      -0.5867449886E-03       4    7    1        -0.3150528932E-01      0.8271303971E-01
          0                 3           2             4    7     1      -0.1798359440E-01       5    8    1        -0.9659187702E+00      0.2376901992E+01
          0                 4           2             4    7     1       0.1881698619E-01       5    8    1         0.1038867571E+01      0.2544726144E+01
          0                 5           2             4    7     1      -0.2371244734E-02       4    8    1        -0.1345634935E+00      0.3307047415E+00
          0                 6           2             4    7     1       0.1782390392E-02       5    6    1         0.1039573241E+00      0.2546543132E+00
          0                 7           2             4    7     1      -0.1563075647E-02       4    8    1        -0.9369134520E-01      0.2308028168E+00
          0                 8           2             4    7     1       0.1680719351E-02       5    6    1         0.1035247443E+00      0.2535840616E+00
          0                 9           2             4    7     1       0.1126365580E-03       5    6    1         0.6937832952E-02      0.1699414583E-01
          0                10           1             4    7     1       0.7554224092E-05       5    6    1         0.4652963908E-03      0.1139738647E-02

    ------------------------------------------------
       NWT REQUIRED           10 OUTER ITERATIONS 
       AND A TOTAL OF         19 INNER ITERATIONS.
    ------------------------------------------------

 NO OUTPUT CONTROL FOR STRESS PERIOD   18   TIME STEP    6
 
 SOLVING FOR HEAD 
                                                   Max.-Head-Change                         Max.-Flux-Residual
  Residual-Control   Outer-Iter.   Inner-Iter.     Column Row Layer    Maximum-Head-Change  Column Row Layer    Maximum-Flux-Residual          L2-NORM 
          0                 1           2             1    1     1       0.3115697217E-02       1    1    1         0.1617020007E+00      0.3515644512E+00
          0                 2           2             1    1     1      -0.3030725984E-03       1    1    1        -0.1617021469E-01      0.3515348702E-01
          0                 3           2             4    7     1      -0.1896552451E-01       5    8    1        -0.1018656536E+01      0.2506097751E+01
          0                 4           2             4    7     1       0.1933689830E-01       5    8    1         0.1067571325E+01      0.2615009290E+01
          0                 5           2             4    7     1      -0.2554438592E-02       4    8    1        -0.1449593635E+00      0.3562224591E+00
          0                 6           2             4    7     1       0.1330672595E-02       5    6    1         0.7761103753E-01      0.1904408548E+00
          0                 7           2             4    7     1       0.8470034694E-03       5    6    1         0.4940069675E-01      0.1210066373E+00
          0                 8           1             4    7     1       0.1243405108E-04       5    6    1         0.7251977418E-03      0.1776364037E-02

    ------------------------------------------------
       NWT REQUIRED            8 OUTER ITERATIONS 
       AND A TOTAL OF         15 INNER ITERATIONS.
    ------------------------------------------------

 NO OUTPUT CONTROL FOR STRESS PERIOD   18   TIME STEP    7
 
 SOLVING FOR HEAD 
                                                   Max.-Head-Change                         Max.-Flux-Residual
  Residual-Control   Outer-Iter.   Inner-Iter.     Column Row Layer    Maximum-Head-Change  Column Row Layer    Maximum-Flux-Residual          L2-NORM 
          0                 1           2             1    1     1       0.3113230076E-02       1    1    1         0.1615736740E+00      0.3513126002E+00
          0                 2           2             4    7     1      -0.6636587810E-03       4    7    1        -0.3563652614E-01      0.9244802549E-01
          0                 3           2             4    7     1      -0.1782586304E-01       5    8    1        -0.9574491976E+00      0.2356153389E+01
          0                 4           2             4    7     1       0.1872539564E-01       5    8    1         0.1033811154E+01      0.2532333270E+01
          0                 5           2             4    7     1      -0.2444524991E-02       4    8    1        -0.1387219817E+00      0.3409406153E+00
          0                 6           2             4    7     1       0.6620456290E-03       5    6    1         0.3861359418E-01      0.9636108815E-01
          0                 7           2             4    7     1       0.1422440597E-02       5    6    1         0.8296253565E-01      0.2032162995E+00
          0                 8           1             4    7     1       0.2088610951E-04       5    6    1         0.1218152247E-02      0.2983850926E-02

    ------------------------------------------------
       NWT REQUIRED            8 OUTER ITERATIONS 
       AND A TOTAL OF         15 INNER ITERATIONS.
    ------------------------------------------------

 NO OUTPUT CONTROL FOR STRESS PERIOD   18   TIME STEP    8
 
 SOLVING FOR HEAD 
                                                   Max.-Head-Change                         Max.-Flux-Residual
  Residual-Control   Outer-Iter.   Inner-Iter.     Column Row Layer    Maximum-Head-Change  Column Row Layer    Maximum-Flux-Residual          L2-NORM 
          0                 1           2             1    1     1       0.3110770780E-02       1    1    1         0.1614457567E+00      0.3530745806E+00
          0                 2           2             1    1     1      -0.3025933884E-03       1    1    1        -0.1614459019E-01      0.3632050721E-01
          0                 3           2             4    7     1      -0.1893542993E-01       5    8    1        -0.1017041844E+01      0.2502144189E+01
          0                 4           2             4    7     1       0.1932513035E-01       5    8    1         0.1066921802E+01      0.2613428142E+01
          0                 5           2             4    7     1      -0.2421307390E-02       4    8    1        -0.1374044779E+00      0.3376575818E+00
          0                 6           2             4    7     1       0.1816997873E-02       5    6    1         0.1059758030E+00      0.2595998329E+00
          0                 7           2             4    7     1      -0.1609493661E-02       4    8    1        -0.9647366686E-01      0.2376566290E+00
          0                 8           2             4    7     1       0.1726004763E-02       5    6    1         0.1063141307E+00      0.2604155383E+00
          0                 9           2             4    7     1       0.1156715823E-03       5    6    1         0.7124775518E-02      0.1745205766E-01
          0                10           1             4    7     1       0.7757601252E-05       5    6    1         0.4778232919E-03      0.1170423014E-02

    ------------------------------------------------
       NWT REQUIRED           10 OUTER ITERATIONS 
       AND A TOTAL OF         19 INNER ITERATIONS.
    ------------------------------------------------

 NO OUTPUT CONTROL FOR STRESS PERIOD   18   TIME STEP    9
 
 SOLVING FOR HEAD 
                                                   Max.-Head-Change                         Max.-Flux-Residual
  Residual-Control   Outer-Iter.   Inner-Iter.     Column Row Layer    Maximum-Head-Change  Column Row Layer    Maximum-Flux-Residual          L2-NORM 
          0                 1           2             1    1     1       0.3108319272E-02       1    1    1         0.1613182463E+00      0.3563488444E+00
          0                 2           2             1    1     1      -0.3023549233E-03       1    1    1        -0.1613183910E-01      0.3560579216E-01
          0                 3           2             4    7     1      -0.1896968754E-01       5    8    1        -0.1018882370E+01      0.2506650008E+01
          0                 4           2             4    7     1       0.1932184678E-01       5    8    1         0.1066740591E+01      0.2612983309E+01
          0                 5           2             4    7     1      -0.2518792898E-02       4    8    1        -0.1429365612E+00      0.3512873698E+00
          0                 6           2             4    7     1       0.1397152382E-02       5    6    1         0.8148845587E-01      0.1998430138E+00
          0                 7           2             4    7     1       0.7652197772E-03       5    6    1         0.4463074251E-01      0.1093226022E+00
          0                 8           1             4    7     1       0.1123280611E-04       5    6    1         0.6551369161E-03      0.1604751004E-02

    ------------------------------------------------
       NWT REQUIRED            8 OUTER ITERATIONS 
       AND A TOTAL OF         15 INNER ITERATIONS.
    ------------------------------------------------

 NO OUTPUT CONTROL FOR STRESS PERIOD   18   TIME STEP   10
 
 SOLVING FOR HEAD 
                                                   Max.-Head-Change                         Max.-Flux-Residual
  Residual-Control   Outer-Iter.   Inner-Iter.     Column Row Layer    Maximum-Head-Change  Column Row Layer    Maximum-Flux-Residual          L2-NORM 
          0                 1           2             1    1     1       0.3105875562E-02       1    1    1         0.1611911397E+00      0.3600630683E+00
          0                 2           2             4    7     1      -0.7449380175E-03       4    7    1        -0.4000221944E-01      0.1033925449E+00
          0                 3           2             4    7     1      -0.1765945853E-01       5    8    1        -0.9485140687E+00      0.2334270194E+01
          0                 4           2             4    7     1       0.1862092707E-01       5    8    1         0.1028043803E+01      0.2518194406E+01
          0                 5           2             4    7     1      -0.5157272770E-03       4    8    1        -0.2926710948E-01      0.7174530295E-01
          0                 6           1             2   13     1      -0.2208782650E-04       4   13    1        -0.1420945517E-02      0.2707233341E-02

    ------------------------------------------------
       NWT REQUIRED            6 OUTER ITERATIONS 
       AND A TOTAL OF         11 INNER ITERATIONS.
    ------------------------------------------------

 NO OUTPUT CONTROL FOR STRESS PERIOD   18   TIME STEP   11
 
 SOLVING FOR HEAD 
                                                   Max.-Head-Change                         Max.-Flux-Residual
  Residual-Control   Outer-Iter.   Inner-Iter.     Column Row Layer    Maximum-Head-Change  Column Row Layer    Maximum-Flux-Residual          L2-NORM 
          0                 1           2             1    1     1       0.3103462185E-02       1    1    1         0.1610656104E+00      0.3624567825E+00
          0                 2           2             4    7     1      -0.3454876452E-02       4    7    1        -0.1855467961E+00      0.4573874952E+00
          0                 3           2             4    7     1      -0.1603554070E-01       5    8    1        -0.8612963747E+00      0.2123173918E+01
          0                 4           2             4    7     1       0.2018231658E-01       5    8    1         0.1114246208E+01      0.2729381266E+01
          0                 5           2             4    7     1      -0.8032760521E-03       4    8    1        -0.4558496111E-01      0.1116607897E+00
          0                 6           1             4    7     1       0.9918897609E-05       4    8    1         0.5785263725E-03      0.1417211594E-02

    ------------------------------------------------
       NWT REQUIRED            6 OUTER ITERATIONS 
       AND A TOTAL OF         11 INNER ITERATIONS.
    ------------------------------------------------

 NO OUTPUT CONTROL FOR STRESS PERIOD   18   TIME STEP   12
 
 SOLVING FOR HEAD 
                                                   Max.-Head-Change                         Max.-Flux-Residual
  Residual-Control   Outer-Iter.   Inner-Iter.     Column Row Layer    Maximum-Head-Change  Column Row Layer    Maximum-Flux-Residual          L2-NORM 
          0                 1           2             1    1     1       0.3101033889E-02       1    1    1         0.1609393077E+00      0.3677608510E+00
          0                 2           2             1    1     1      -0.3016462514E-03       1    1    1        -0.1609394506E-01      0.3668030564E-01
          0                 3           2             4    7     1      -0.2317359049E-01       5    8    1        -0.1244663049E+01      0.3062122090E+01
          0                 4           2             4    7     1       0.2412897769E-01       5    8    1         0.1332136252E+01      0.3263102234E+01
          0                 5           2             4    7     1      -0.9603505286E-03       4    8    1        -0.5449888149E-01      0.1334940299E+00
          0                 6           1             4    7     1       0.1184758871E-04       4    8    1         0.6910199909E-03      0.1692639677E-02

    ------------------------------------------------
       NWT REQUIRED            6 OUTER ITERATIONS 
       AND A TOTAL OF         11 INNER ITERATIONS.
    ------------------------------------------------

 NO OUTPUT CONTROL FOR STRESS PERIOD   18   TIME STEP   13
 
 SOLVING FOR HEAD 
                                                   Max.-Head-Change                         Max.-Flux-Residual
  Residual-Control   Outer-Iter.   Inner-Iter.     Column Row Layer    Maximum-Head-Change  Column Row Layer    Maximum-Flux-Residual          L2-NORM 
          0                 1           2             1    1     1       0.3098613278E-02       1    1    1         0.1608134046E+00      0.3724047016E+00
          0                 2           2             1    1     1      -0.3014107913E-03       1    1    1        -0.1608135470E-01      0.3711788844E-01
          0                 3           2             4    7     1      -0.2317362030E-01       5    8    1        -0.1244665178E+01      0.3062129139E+01
          0                 4           2             4    7     1       0.2412897693E-01       5    8    1         0.1332136282E+01      0.3263102250E+01
          0                 5           2             4    7     1      -0.9603575006E-03       4    8    1        -0.5449927800E-01      0.1334950068E+00
          0                 6           1             4    7     1       0.1185721289E-04       4    8    1         0.6915813337E-03      0.1694012385E-02

    ------------------------------------------------
       NWT REQUIRED            6 OUTER ITERATIONS 
       AND A TOTAL OF         11 INNER ITERATIONS.
    ------------------------------------------------

 NO OUTPUT CONTROL FOR STRESS PERIOD   18   TIME STEP   14
 
 SOLVING FOR HEAD 
                                                   Max.-Head-Change                         Max.-Flux-Residual
  Residual-Control   Outer-Iter.   Inner-Iter.     Column Row Layer    Maximum-Head-Change  Column Row Layer    Maximum-Flux-Residual          L2-NORM 
          0                 1           2             1    1     1       0.3096200317E-02       1    1    1         0.1606878999E+00      0.3769662721E+00
          0                 2           2             1    1     1      -0.3011760755E-03       1    1    1        -0.1606880420E-01      0.3754716814E-01
          0                 3           2             4    7     1      -0.2317364498E-01       5    8    1        -0.1244666965E+01      0.3062135391E+01
          0                 4           2             4    7     1       0.2412897150E-01       5    8    1         0.1332136050E+01      0.3263101640E+01
          0                 5           2             4    7     1      -0.9603572848E-03       4    8    1        -0.5449926687E-01      0.1334949834E+00
          0                 6           1             4    7     1       0.1185721043E-04       4    8    1         0.6915812160E-03      0.1694298224E-02

    ------------------------------------------------
       NWT REQUIRED            6 OUTER ITERATIONS 
       AND A TOTAL OF         11 INNER ITERATIONS.
    ------------------------------------------------

 NO OUTPUT CONTROL FOR STRESS PERIOD   18   TIME STEP   15
 
 SOLVING FOR HEAD 
                                                   Max.-Head-Change                         Max.-Flux-Residual
  Residual-Control   Outer-Iter.   Inner-Iter.     Column Row Layer    Maximum-Head-Change  Column Row Layer    Maximum-Flux-Residual          L2-NORM 
          0                 1           2             1    1     1       0.3093794967E-02       1    1    1         0.1605627918E+00      0.3813662253E+00
          0                 2           2             1    1     1      -0.3009420995E-03       1    1    1        -0.1605629333E-01      0.3796165175E-01
          0                 3           2             4    7     1      -0.2317367426E-01       5    8    1        -0.1244668937E+01      0.3062141916E+01
          0                 4           2             4    7     1       0.2412897071E-01       5    8    1         0.1332136068E+01      0.3263101649E+01
          0                 5           2             4    7     1      -0.9603572528E-03       4    8    1        -0.5449926616E-01      0.1334949786E+00
          0                 6           1             4    7     1       0.1185720998E-04       4    8    1         0.6915811964E-03      0.1694013135E-02

    ------------------------------------------------
       NWT REQUIRED            6 OUTER ITERATIONS 
       AND A TOTAL OF         11 INNER ITERATIONS.
    ------------------------------------------------

 NO OUTPUT CONTROL FOR STRESS PERIOD   18   TIME STEP   16
 
 SOLVING FOR HEAD 
                                                   Max.-Head-Change                         Max.-Flux-Residual
  Residual-Control   Outer-Iter.   Inner-Iter.     Column Row Layer    Maximum-Head-Change  Column Row Layer    Maximum-Flux-Residual          L2-NORM 
          0                 1           2             1    1     1       0.3091397204E-02       1    1    1         0.1604380784E+00      0.3855502173E+00
          0                 2           2             1    1     1      -0.3007088622E-03       1    1    1        -0.1604382196E-01      0.3835560948E-01
          0                 3           2             4    7     1      -0.2317370155E-01       5    8    1        -0.1244670956E+01      0.3062148081E+01
          0                 4           2             4    7     1       0.2412897123E-01       5    8    1         0.1332136170E+01      0.3263105165E+01
          0                 5           2             4    7     1      -0.9603586744E-03       4    8    1        -0.5449934817E-01      0.1334953358E+00
          0                 6           1             4    7     1       0.1185722723E-04       4    8    1         0.6915822592E-03      0.1694018619E-02

    ------------------------------------------------
       NWT REQUIRED            6 OUTER ITERATIONS 
       AND A TOTAL OF         11 INNER ITERATIONS.
    ------------------------------------------------

 NO OUTPUT CONTROL FOR STRESS PERIOD   18   TIME STEP   17
 
 SOLVING FOR HEAD 
                                                   Max.-Head-Change                         Max.-Flux-Residual
  Residual-Control   Outer-Iter.   Inner-Iter.     Column Row Layer    Maximum-Head-Change  Column Row Layer    Maximum-Flux-Residual          L2-NORM 
          0                 1           2             1    1     1       0.3089007014E-02       1    1    1         0.1603137584E+00      0.3894878385E+00
          0                 2           2             1    1     1      -0.3004763608E-03       1    1    1        -0.1603138989E-01      0.3872601208E-01
          0                 3           2             4    7     1      -0.2317372842E-01       5    8    1        -0.1244672675E+01      0.3062153957E+01
          0                 4           2             4    7     1       0.2412896668E-01       5    8    1         0.1332135972E+01      0.3263104647E+01
          0                 5           2             4    7     1      -0.9603570930E-03       4    8    1        -0.5449925945E-01      0.1334951035E+00
          0                 6           1             4    7     1       0.1185720774E-04       4    8    1         0.6915811337E-03      0.1694009056E-02

    ------------------------------------------------
       NWT REQUIRED            6 OUTER ITERATIONS 
       AND A TOTAL OF         11 INNER ITERATIONS.
    ------------------------------------------------

 NO OUTPUT CONTROL FOR STRESS PERIOD   18   TIME STEP   18
 
 SOLVING FOR HEAD 
                                                   Max.-Head-Change                         Max.-Flux-Residual
  Residual-Control   Outer-Iter.   Inner-Iter.     Column Row Layer    Maximum-Head-Change  Column Row Layer    Maximum-Flux-Residual          L2-NORM 
          0                 1           2             1    1     1       0.3086624347E-02       1    1    1         0.1601898310E+00      0.3931712572E+00
          0                 2           2             1    1     1      -0.3002445910E-03       1    1    1        -0.1601899709E-01      0.3907322530E-01
          0                 3           2             4    7     1      -0.2317375511E-01       5    8    1        -0.1244674336E+01      0.3062159390E+01
          0                 4           2             4    7     1       0.2412896356E-01       5    8    1         0.1332135850E+01      0.3263104329E+01
          0                 5           2             4    7     1      -0.9603569689E-03       4    8    1        -0.5449925345E-01      0.1334951007E+00
          0                 6           1             4    7     1       0.1185720639E-04       4    8    1         0.6915810200E-03      0.1694012577E-02

    ------------------------------------------------
       NWT REQUIRED            6 OUTER ITERATIONS 
       AND A TOTAL OF         11 INNER ITERATIONS.
    ------------------------------------------------

 NO OUTPUT CONTROL FOR STRESS PERIOD   18   TIME STEP   19
 
 SOLVING FOR HEAD 
                                                   Max.-Head-Change                         Max.-Flux-Residual
  Residual-Control   Outer-Iter.   Inner-Iter.     Column Row Layer    Maximum-Head-Change  Column Row Layer    Maximum-Flux-Residual          L2-NORM 
          0                 1           2             1    1     1       0.3084249191E-02       1    1    1         0.1600662937E+00      0.3965806568E+00
          0                 2           2             1    1     1      -0.3000135527E-03       1    1    1        -0.1600664332E-01      0.3939266907E-01
          0                 3           2             4    7     1      -0.2317378165E-01       5    8    1        -0.1244676051E+01      0.3062165033E+01
          0                 4           2             4    7     1       0.2412896043E-01       5    8    1         0.1332135732E+01      0.3263104007E+01
          0                 5           2             4    7     1      -0.9603568443E-03       4    8    1        -0.5449924739E-01      0.1334950817E+00
          0                 6           1             4    7     1       0.1185720505E-04       4    8    1         0.6915809686E-03      0.1694009637E-02

    ------------------------------------------------
       NWT REQUIRED            6 OUTER ITERATIONS 
       AND A TOTAL OF         11 INNER ITERATIONS.
    ------------------------------------------------

 NO OUTPUT CONTROL FOR STRESS PERIOD   18   TIME STEP   20
 
 SOLVING FOR HEAD 
                                                   Max.-Head-Change                         Max.-Flux-Residual
  Residual-Control   Outer-Iter.   Inner-Iter.     Column Row Layer    Maximum-Head-Change  Column Row Layer    Maximum-Flux-Residual          L2-NORM 
          0                 1           2             1    1     1       0.3081881512E-02       1    1    1         0.1599431458E+00      0.3997418387E+00
          0                 2           2             1    1     1      -0.2997832417E-03       1    1    1        -0.1599432849E-01      0.3968962916E-01
          0                 3           2             4    7     1      -0.2317381022E-01       5    8    1        -0.1244677715E+01      0.3062170428E+01
          0                 4           2             4    7     1       0.2412895961E-01       5    8    1         0.1332135729E+01      0.3263104222E+01
          0                 5           2             4    7     1      -0.9603568114E-03       4    8    1        -0.5449924651E-01      0.1334950859E+00
          0                 6           1             4    7     1       0.1185720460E-04       4    8    1         0.6915809440E-03      0.1694011951E-02

    ------------------------------------------------
       NWT REQUIRED            6 OUTER ITERATIONS 
       AND A TOTAL OF         11 INNER ITERATIONS.
    ------------------------------------------------

 NO OUTPUT CONTROL FOR STRESS PERIOD   18   TIME STEP   21
 
 SOLVING FOR HEAD 
                                                   Max.-Head-Change                         Max.-Flux-Residual
  Residual-Control   Outer-Iter.   Inner-Iter.     Column Row Layer    Maximum-Head-Change  Column Row Layer    Maximum-Flux-Residual          L2-NORM 
          0                 1           2             1    1     1       0.3079521239E-02       1    1    1         0.1598203856E+00      0.4026513393E+00
          0                 2           2             1    1     1      -0.2995536503E-03       1    1    1        -0.1598205239E-01      0.3996323575E-01
          0                 3           2             4    7     1      -0.2317383860E-01       5    8    1        -0.1244679440E+01      0.3062175708E+01
          0                 4           2             4    7     1       0.2412895877E-01       5    8    1         0.1332135731E+01      0.3263104193E+01
          0                 5           2             4    7     1      -0.9603539772E-03       4    8    1        -0.5449908665E-01      0.1334947007E+00
          0                 6           1             4    7     1       0.1185444431E-04       4    8    1         0.6914199657E-03      0.1693614756E-02

    ------------------------------------------------
       NWT REQUIRED            6 OUTER ITERATIONS 
       AND A TOTAL OF         11 INNER ITERATIONS.
    ------------------------------------------------

 NO OUTPUT CONTROL FOR STRESS PERIOD   18   TIME STEP   22
 
 SOLVING FOR HEAD 
                                                   Max.-Head-Change                         Max.-Flux-Residual
  Residual-Control   Outer-Iter.   Inner-Iter.     Column Row Layer    Maximum-Head-Change  Column Row Layer    Maximum-Flux-Residual          L2-NORM 
          0                 1           2             1    1     1       0.3077168383E-02       1    1    1         0.1596980094E+00      0.4053194801E+00
          0                 2           2             1    1     1      -0.2993247812E-03       1    1    1        -0.1596981475E-01      0.4020558937E-01
          0                 3           2             4    7     1      -0.2317386456E-01       5    8    1        -0.1244680879E+01      0.3062180703E+01
          0                 4           2             4    7     1       0.2412895561E-01       5    8    1         0.1332135593E+01      0.3263103867E+01
          0                 5           2             4    7     1      -0.9603566523E-03       4    8    1        -0.5449923944E-01      0.1334950864E+00
          0                 6           1             4    7     1       0.1185720258E-04       4    8    1         0.6915808503E-03      0.1694014279E-02

    ------------------------------------------------
       NWT REQUIRED            6 OUTER ITERATIONS 
       AND A TOTAL OF         11 INNER ITERATIONS.
    ------------------------------------------------

 NO OUTPUT CONTROL FOR STRESS PERIOD   18   TIME STEP   23
 
 SOLVING FOR HEAD 
                                                   Max.-Head-Change                         Max.-Flux-Residual
  Residual-Control   Outer-Iter.   Inner-Iter.     Column Row Layer    Maximum-Head-Change  Column Row Layer    Maximum-Flux-Residual          L2-NORM 
          0                 1           2             1    1     1       0.3074822895E-02       1    1    1         0.1595760177E+00      0.4077842037E+00
          0                 2           2             1    1     1      -0.2990966276E-03       1    1    1        -0.1595761550E-01      0.4044473615E-01
          0                 3           2             4    7     1      -0.2317389033E-01       5    8    1        -0.1244682384E+01      0.3062185279E+01
          0                 4           2             4    7     1       0.2412883009E-01       5    8    1         0.1332128705E+01      0.3263086966E+01
          0                 5           2             4    7     1      -0.9602256149E-03       4    8    1        -0.5449180431E-01      0.1334768755E+00
          0                 6           1             4    7     1       0.1184468503E-04       4    8    1         0.6908507758E-03      0.1692223845E-02

    ------------------------------------------------
       NWT REQUIRED            6 OUTER ITERATIONS 
       AND A TOTAL OF         11 INNER ITERATIONS.
    ------------------------------------------------

 NO OUTPUT CONTROL FOR STRESS PERIOD   18   TIME STEP   24
 
 SOLVING FOR HEAD 
                                                   Max.-Head-Change                         Max.-Flux-Residual
  Residual-Control   Outer-Iter.   Inner-Iter.     Column Row Layer    Maximum-Head-Change  Column Row Layer    Maximum-Flux-Residual          L2-NORM 
          0                 1           2             1    1     1       0.3072484763E-02       1    1    1         0.1594544081E+00      0.4100301453E+00
          0                 2           2             1    1     1      -0.2988691913E-03       1    1    1        -0.1594545452E-01      0.4065584781E-01
          0                 3           2             4    7     1      -0.2317391589E-01       5    8    1        -0.1244683728E+01      0.3062189816E+01
          0                 4           2             4    7     1       0.2412894927E-01       5    8    1         0.1332135316E+01      0.3263103163E+01
          0                 5           2             4    7     1      -0.9603563997E-03       4    8    1        -0.5449922701E-01      0.1334950494E+00
          0                 6           1             4    7     1       0.1185719922E-04       4    8    1         0.6915806953E-03      0.1694007231E-02

    ------------------------------------------------
       NWT REQUIRED            6 OUTER ITERATIONS 
       AND A TOTAL OF         11 INNER ITERATIONS.
    ------------------------------------------------

 NO OUTPUT CONTROL FOR STRESS PERIOD   18   TIME STEP   25
 
 SOLVING FOR HEAD 
                                                   Max.-Head-Change                         Max.-Flux-Residual
  Residual-Control   Outer-Iter.   Inner-Iter.     Column Row Layer    Maximum-Head-Change  Column Row Layer    Maximum-Flux-Residual          L2-NORM 
          0                 1           2             1    1     1       0.3070131344E-02       1    1    1         0.1593320054E+00      0.4120883507E+00
          0                 2           2             1    1     1      -0.2986402665E-03       1    1    1        -0.1593321418E-01      0.4084805664E-01
          0                 3           2             4    7     1      -0.2317394347E-01       5    8    1        -0.1244685260E+01      0.3062194541E+01
          0                 4           2             4    7     1       0.2412881307E-01       5    8    1         0.1332127833E+01      0.3263084814E+01
          0                 5           2             4    7     1      -0.9602123339E-03       4    8    1        -0.5449105249E-01      0.1334750300E+00
          0                 6           1             4    7     1       0.1184179570E-04       4    8    1         0.6906822887E-03      0.1691807982E-02

    ------------------------------------------------
       NWT REQUIRED            6 OUTER ITERATIONS 
       AND A TOTAL OF         11 INNER ITERATIONS.
    ------------------------------------------------

 NO OUTPUT CONTROL FOR STRESS PERIOD   18   TIME STEP   26
 
 SOLVING FOR HEAD 
                                                   Max.-Head-Change                         Max.-Flux-Residual
  Residual-Control   Outer-Iter.   Inner-Iter.     Column Row Layer    Maximum-Head-Change  Column Row Layer    Maximum-Flux-Residual          L2-NORM 
          0                 1           2             1    1     1       0.3067807854E-02       1    1    1         0.1592111590E+00      0.4139638924E+00
          0                 2           2             1    1     1      -0.2984142534E-03       1    1    1        -0.1592112949E-01      0.4102387738E-01
          0                 3           2             4    7     1      -0.2317397075E-01       5    8    1        -0.1244686643E+01      0.3062198712E+01
          0                 4           2             4    7     1       0.2412894676E-01       5    8    1         0.1332135242E+01      0.3263102954E+01
          0                 5           2             4    7     1      -0.9603577000E-03       4    8    1        -0.5449930238E-01      0.1334952430E+00
          0                 6           1             4    7     1       0.1185721535E-04       4    8    1         0.6915816484E-03      0.1694017215E-02

    ------------------------------------------------
       NWT REQUIRED            6 OUTER ITERATIONS 
       AND A TOTAL OF         11 INNER ITERATIONS.
    ------------------------------------------------

 NO OUTPUT CONTROL FOR STRESS PERIOD   18   TIME STEP   27
 
 SOLVING FOR HEAD 
                                                   Max.-Head-Change                         Max.-Flux-Residual
  Residual-Control   Outer-Iter.   Inner-Iter.     Column Row Layer    Maximum-Head-Change  Column Row Layer    Maximum-Flux-Residual          L2-NORM 
          0                 1           2             1    1     1       0.3065491629E-02       1    1    1         0.1590906900E+00      0.4156740374E+00
          0                 2           2             1    1     1      -0.2981889475E-03       1    1    1        -0.1590908255E-01      0.4117601464E-01
          0                 3           2             4    7     1      -0.2317399529E-01       5    8    1        -0.1244687840E+01      0.3062202978E+01
          0                 4           2             4    7     1       0.2412878661E-01       5    8    1         0.1332126425E+01      0.3263081366E+01
          0                 5           2             4    7     1      -0.9601916741E-03       4    8    1        -0.5448988168E-01      0.1334721606E+00
          0                 6           1             4    7     1       0.1184154075E-04       4    8    1         0.6906674425E-03      0.1691774293E-02

    ------------------------------------------------
       NWT REQUIRED            6 OUTER ITERATIONS 
       AND A TOTAL OF         11 INNER ITERATIONS.
    ------------------------------------------------

 NO OUTPUT CONTROL FOR STRESS PERIOD   18   TIME STEP   28
 
 SOLVING FOR HEAD 
                                                   Max.-Head-Change                         Max.-Flux-Residual
  Residual-Control   Outer-Iter.   Inner-Iter.     Column Row Layer    Maximum-Head-Change  Column Row Layer    Maximum-Flux-Residual          L2-NORM 
          0                 1           2             1    1     1       0.3063182637E-02       1    1    1         0.1589705976E+00      0.4172437482E+00
          0                 2           2             1    1     1      -0.2979643448E-03       1    1    1        -0.1589707326E-01      0.4133052684E-01
          0                 3           2             4    7     1      -0.2317401995E-01       5    8    1        -0.1244689130E+01      0.3062207105E+01
          0                 4           2             4    7     1       0.2412893885E-01       5    8    1         0.1332134859E+01      0.3263101585E+01
          0                 5           2             4    7     1      -0.9603559855E-03       4    8    1        -0.5449920712E-01      0.1334946622E+00
          0                 6           1             4    7     1       0.1185719452E-04       4    8    1         0.6915804661E-03      0.1694011802E-02

    ------------------------------------------------
       NWT REQUIRED            6 OUTER ITERATIONS 
       AND A TOTAL OF         11 INNER ITERATIONS.
    ------------------------------------------------

 NO OUTPUT CONTROL FOR STRESS PERIOD   18   TIME STEP   29
 
 SOLVING FOR HEAD 
                                                   Max.-Head-Change                         Max.-Flux-Residual
  Residual-Control   Outer-Iter.   Inner-Iter.     Column Row Layer    Maximum-Head-Change  Column Row Layer    Maximum-Flux-Residual          L2-NORM 
          0                 1           2             1    1     1       0.3060880834E-02       1    1    1         0.1588508803E+00      0.4186746908E+00
          0                 2           2             1    1     1      -0.2977404412E-03       1    1    1        -0.1588510148E-01      0.4146361604E-01
          0                 3           2             4    7     1      -0.2317404660E-01       5    8    1        -0.1244690501E+01      0.3062211249E+01
          0                 4           2             4    7     1       0.2412876950E-01       5    8    1         0.1332125538E+01      0.3263079196E+01
          0                 5           2             4    7     1      -0.9601783884E-03       4    8    1        -0.5448912979E-01      0.1334703199E+00
          0                 6           1             4    7     1       0.1184137653E-04       4    8    1         0.6906579101E-03      0.1691748915E-02

    ------------------------------------------------
       NWT REQUIRED            6 OUTER ITERATIONS 
       AND A TOTAL OF         11 INNER ITERATIONS.
    ------------------------------------------------

 NO OUTPUT CONTROL FOR STRESS PERIOD   18   TIME STEP   30



 STREAM LISTING     PERIOD     18   STEP       30

 LAYER ROW COL. STREAM  RCH.  FLOW INTO     FLOW TO   FLOW OUT OF   OVRLND.     DIRECT     STREAM       STREAM     STREAM     STREAM   STREAMBED  STREAMBED
                SEG.NO.  NO.  STRM. RCH.    AQUIFER    STRM. RCH.    RUNOFF     PRECIP       ET          HEAD       DEPTH      WIDTH   CONDCTNC.   GRADIENT

   1    1    1     1     1    4.7251E+01  3.2762E-01   4.6923E+01  0.000E+00  0.000E+00  0.000E+00  1.09443E+03  1.381E+00  1.662E+01  7.477E-02  1.460E+00
   1    2    2     1     2    4.6923E+01  5.0760E-01   4.6416E+01  0.000E+00  0.000E+00  0.000E+00  1.08944E+03  1.379E+00  1.656E+01  1.159E-01  1.460E+00
   1    3    3     1     3    4.6416E+01  4.3310E-01   4.5982E+01  0.000E+00  0.000E+00  0.000E+00  1.08379E+03  1.376E+00  1.650E+01  9.898E-02  1.459E+00
   1    3    4     1     4    4.5982E+01  3.9899E-01   4.5583E+01  0.000E+00  0.000E+00  0.000E+00  1.07878E+03  1.373E+00  1.644E+01  9.124E-02  1.458E+00
   1    4    5     2     1    4.3583E+01  3.6514E-01   4.3218E+01  0.000E+00  0.000E+00  0.000E+00  1.07362E+03  1.681E+00  1.200E+01  7.800E-02  1.560E+00
   1    5    6     2     2    4.3218E+01  2.8043E-01   4.2938E+01  0.000E+00  0.000E+00  0.000E+00  1.06818E+03  1.674E+00  1.200E+01  6.000E-02  1.558E+00
   1    6    6     2     3    4.2938E+01  2.8003E-01   4.2658E+01  0.000E+00  0.000E+00  0.000E+00  1.06346E+03  1.667E+00  1.200E+01  6.000E-02  1.556E+00
   1    7    6     2     4    4.2658E+01  2.7964E-01   4.2378E+01  0.000E+00  0.000E+00  0.000E+00  1.05874E+03  1.661E+00  1.200E+01  6.000E-02  1.554E+00
   1    8    6     2     5    4.2378E+01  2.7925E-01   4.2099E+01  0.000E+00  0.000E+00  0.000E+00  1.05401E+03  1.654E+00  1.200E+01  6.000E-02  1.551E+00
   1    3    5     3     1    2.0000E+00  2.8252E-01   1.7175E+00  0.000E+00  0.000E+00  0.000E+00  1.07555E+03  1.909E+00  9.636E+00  7.227E-02  1.955E+00
   1    3    6     3     2    1.7175E+00  2.4905E-01   1.4684E+00  0.000E+00  0.000E+00  0.000E+00  1.07264E+03  1.727E+00  8.909E+00  6.682E-02  1.864E+00
   1    3    7     3     3    1.4684E+00  1.9718E-01   1.2712E+00  0.000E+00  0.000E+00  0.000E+00  1.06987E+03  1.555E+00  8.218E+00  5.547E-02  1.777E+00
   1    4    8     3     4    1.2712E+00  2.2567E-01   1.0456E+00  0.000E+00  0.000E+00  0.000E+00  1.06682E+03  1.364E+00  7.455E+00  6.709E-02  1.682E+00
   1    5    8     3     5    1.0456E+00  1.5790E-01   8.8768E-01  0.000E+00  0.000E+00  0.000E+00  1.06362E+03  1.164E+00  6.655E+00  4.991E-02  1.582E+00
   1    6    8     3     6    8.8768E-01  5.5980E-02   8.3170E-01  0.000E+00  0.000E+00  0.000E+00  1.06158E+03  1.036E+00  6.145E+00  1.844E-02  1.518E+00
   1    5   10     4     1    1.0000E+01  9.0919E-02   9.9091E+00  0.000E+00  0.000E+00  0.000E+00  1.07836E+03  6.368E-01  1.000E+01  2.500E-02  1.212E+00
   1    5    9     4     2    9.9091E+00  1.8158E-01   9.7275E+00  0.000E+00  0.000E+00  0.000E+00  1.07154E+03  6.315E-01  1.000E+01  5.000E-02  1.211E+00
   1    6    8     4     3    9.7275E+00  1.2689E-01   9.6006E+00  0.000E+00  0.000E+00  0.000E+00  1.06381E+03  6.256E-01  1.000E+01  3.500E-02  1.209E+00
   1    6    8     5     1    1.0432E+01  2.2686E-01   1.0205E+01  0.000E+00  0.000E+00  0.000E+00  1.05868E+03  6.790E-01  1.542E+01  6.166E-02  1.226E+00
   1    7    7     5     2    1.0205E+01  2.7894E-01   9.9265E+00  0.000E+00  0.000E+00  0.000E+00  1.05417E+03  6.732E-01  1.519E+01  7.594E-02  1.224E+00
   1    8    7     5     3    9.9265E+00  1.9221E-01   9.7343E+00  0.000E+00  0.000E+00  0.000E+00  1.04992E+03  6.676E-01  1.497E+01  5.241E-02  1.223E+00
   1    8    6     5     4    9.7343E+00  1.3577E-01   9.5985E+00  0.000E+00  0.000E+00  0.000E+00  1.04691E+03  6.637E-01  1.482E+01  3.706E-02  1.221E+00
   1    9    6     6     1    4.4227E+01  2.8297E-01   4.3944E+01  0.000E+00  0.000E+00  0.000E+00  1.04444E+03  1.716E+00  1.200E+01  6.000E-02  1.572E+00
   1   10    7     6     2    4.3944E+01  2.8257E-01   4.3662E+01  0.000E+00  0.000E+00  0.000E+00  1.03989E+03  1.710E+00  1.200E+01  6.000E-02  1.570E+00
   1   11    7     6     3    4.3662E+01  2.8217E-01   4.3380E+01  0.000E+00  0.000E+00  0.000E+00  1.03534E+03  1.703E+00  1.200E+01  6.000E-02  1.568E+00
   1   12    7     6     4    4.3380E+01  2.8178E-01   4.3098E+01  0.000E+00  0.000E+00  0.000E+00  1.03079E+03  1.696E+00  1.200E+01  6.000E-02  1.565E+00
   1   13    7     6     5    4.3098E+01  1.0579E-02   4.3087E+01  0.000E+00  0.000E+00  0.000E+00  1.02760E+03  1.693E+00  1.200E+01  2.400E-02  1.469E-01
   1   14    9     7     1    1.5000E+02  1.3362E+00   1.4866E+02  0.000E+00  0.000E+00  0.000E+00  1.03987E+03  2.288E+00  5.529E+01  5.593E-01  7.963E-01
   1   13    8     7     2    1.4866E+02  1.8178E+00   1.4685E+02  0.000E+00  0.000E+00  0.000E+00  1.03478E+03  2.279E+00  5.526E+01  6.148E-01  9.856E-01
   1   13    7     7     3    1.4685E+02  1.4123E+00   1.4543E+02  0.000E+00  0.000E+00  0.000E+00  1.02969E+03  2.271E+00  5.522E+01  5.585E-01  8.430E-01
   1   13    6     8     1    1.8852E+02  9.3083E-01   1.8759E+02  0.000E+00  0.000E+00  0.000E+00  1.02494E+03  3.066E+00  4.446E+01  4.530E-01  6.849E-01
   1   13    5     8     2    1.8759E+02  1.5292E-01   1.8744E+02  0.000E+00  0.000E+00  0.000E+00  1.01869E+03  3.063E+00  4.441E+01  4.526E-01  1.126E-01
   1   13    4     8     3    1.8744E+02 -2.5530E+00   1.8999E+02  0.000E+00  0.000E+00  0.000E+00  1.01245E+03  3.070E+00  4.452E+01  4.536E+00 -1.876E-01
   1   13    3     8     4    1.8999E+02 -3.6783E+00   1.9367E+02  0.000E+00  0.000E+00  0.000E+00  1.00621E+03  3.089E+00  4.479E+01  4.564E+00 -2.686E-01
   1   13    2     8     5    1.9367E+02 -2.5938E+00   1.9626E+02  0.000E+00  0.000E+00  0.000E+00  9.99983E+02  3.108E+00  4.506E+01  4.592E+00 -1.883E-01
   1   13    1     8     6    1.9626E+02 -2.0114E+00   1.9827E+02  0.000E+00  0.000E+00  0.000E+00  9.94997E+02  3.122E+00  4.526E+01  2.767E+00 -2.423E-01
   1    8    6     9     1    7.4700E+00  0.0000E+00   7.4700E+00  0.000E+00  0.000E+00  0.000E+00  1.08065E+03  1.902E+00  4.000E+00  0.000E+00  1.634E+00
   1    8    5     9     2    7.4700E+00  0.0000E+00   7.4700E+00  0.000E+00  0.000E+00  0.000E+00  1.08015E+03  1.902E+00  4.000E+00  0.000E+00  1.634E+00





UNSATURATED ZONE PACKAGE VOLUMETRIC BUDGET FOR  TIME STEP    30 STRESS PERIOD   18
  ------------------------------------------------------------------------------



     CUMULATIVE VOLUMES      L**3       RATES FOR THIS TIME STEP      L**3/T
     ------------------                 ------------------------

           IN:                                      IN:
           ---                                      ---
        INFILTRATION =   475253975.1552          INFILTRATION =           8.3177

          OUT:                                     OUT:
          ----                                     ----
              UZF ET =   470517166.8268                UZF ET =           8.3175
        UZF RECHARGE =       73224.0000          UZF RECHARGE =       0.0000E+00

            IN - OUT =     4663584.3283              IN - OUT =       1.7953E-04

          STORAGE:                                 STORAGE:
          --------                                 --------
      STORAGE CHANGE =     4663785.9445        STORAGE CHANGE =       1.7961E-04

 PERCENT DISCREPANCY IS DIFFERENCE BETWEEN IN-OUT MINUS CHANGE IN STORAGE
 DIVIDED BY THE AVERAGE OF IN AND OUT TIMES 100

 PERCENT DISCREPANCY =          -0.00     PERCENT DISCREPANCY =           0.00






1
  VOLUMETRIC BUDGET FOR AGRICULTURAL FIELDS AT  END OF TIME STEP   30, STRESS PERIOD  18
  ------------------------------------------------------------------------------

     CUMULATIVE VOLUMES      L**3       RATES FOR THIS TIME STEP      L**3/T
     ------------------                 ------------------------

           IN:                                      IN:
           ---                                      ---
               AG WELLS  =    49138700.0000                 AG WELLS  =       2.3842E-06
      DIVERSION SEGMENTS =   388186464.0000        DIVERSION SEGMENTS =           7.4700
       IRRIGATION PONDS  =           0.0000         IRRIGATION PONDS  =           0.0000
           GW IRRIGATION =           0.0000             GW IRRIGATION =           0.0000
           SW IRRIGATION =           0.0000             SW IRRIGATION =           0.0000
        SYSTEM LOSSES GW =           0.0000          SYSTEM LOSSES GW =           0.0000
        SYSTEM LOSSES SW =           0.0000          SYSTEM LOSSES SW =           0.0000

                TOTAL IN =   437325152.0000                  TOTAL IN =           7.4700

          OUT:                                     OUT:
          ----                                     ----
               AG WELLS  =           0.0000                 AG WELLS  =           0.0000
      DIVERSION SEGMENTS =           0.0000        DIVERSION SEGMENTS =           0.0000
       IRRIGATION PONDS  =           0.0000         IRRIGATION PONDS  =           0.0000
           GW IRRIGATION =    49138700.0000             GW IRRIGATION =       2.3842E-06
           SW IRRIGATION =   388193920.0000             SW IRRIGATION =           7.4702
        SYSTEM LOSSES GW =           0.0000          SYSTEM LOSSES GW =           0.0000
        SYSTEM LOSSES SW =           0.0000          SYSTEM LOSSES SW =           0.0000

               TOTAL OUT =   437332608.0000                 TOTAL OUT =           7.4702

                IN - OUT =       -7456.0000                  IN - OUT =      -1.4925E-04

     PERCENT DISCREPANCY =          -0.00         PERCENT DISCREPANCY =          -0.00



1
  VOLUMETRIC BUDGET FOR ENTIRE MODEL AT END OF TIME STEP   30, STRESS PERIOD  18
  ------------------------------------------------------------------------------

     CUMULATIVE VOLUMES      L**3       RATES FOR THIS TIME STEP      L**3/T
     ------------------                 ------------------------

           IN:                                      IN:
           ---                                      ---
             STORAGE     =    96883864.0000               STORAGE     =           0.4128
       CONSTANT HEAD     =           0.0000         CONSTANT HEAD     =           0.0000
     HEAD DEP BOUNDS     =    12800601.0000       HEAD DEP BOUNDS     =           0.2858
      STREAM LEAKAGE     =   538550272.0000        STREAM LEAKAGE     =          12.3435
        UZF RECHARGE     =       73223.9531          UZF RECHARGE     =           0.0000
               GW ET     =           0.0000                 GW ET     =           0.0000
     SURFACE LEAKAGE     =           0.0000       SURFACE LEAKAGE     =           0.0000
           AG WELLS      =           0.0000             AG WELLS      =           0.0000

                TOTAL IN =   648307968.0000                  TOTAL IN =          13.0420

          OUT:                                     OUT:
          ----                                     ----
             STORAGE     =   101245176.0000               STORAGE     =           1.8427
       CONSTANT HEAD     =           0.0000         CONSTANT HEAD     =           0.0000
     HEAD DEP BOUNDS     =    13046241.0000       HEAD DEP BOUNDS     =           0.2935
      STREAM LEAKAGE     =   482572192.0000        STREAM LEAKAGE     =          10.8365
        UZF RECHARGE     =           0.0000          UZF RECHARGE     =           0.0000
               GW ET     =     2310564.5000                 GW ET     =       6.9205E-02
     SURFACE LEAKAGE     =           0.0000       SURFACE LEAKAGE     =           0.0000
           AG WELLS      =    49138700.0000             AG WELLS      =       2.3842E-06

               TOTAL OUT =   648312896.0000                 TOTAL OUT =          13.0419

                IN - OUT =       -4928.0000                  IN - OUT =       6.5804E-05

     PERCENT DISCREPANCY =          -0.00         PERCENT DISCREPANCY =           0.00






         TIME SUMMARY AT END OF TIME STEP   30 IN STRESS PERIOD   18
                    SECONDS     MINUTES      HOURS       DAYS        YEARS
                    -----------------------------------------------------------
   TIME STEP LENGTH  87667.      1461.1      24.352      1.0147     2.77799E-03
 STRESS PERIOD TIME 2.63000E+06  43833.      730.56      30.440     8.33397E-02
         TOTAL TIME 4.47965E+07 7.46608E+05  12443.      518.48      1.4195    
1
1
                            STRESS PERIOD NO.   19, LENGTH =   2630000.    
                            -----------------------------------------------

                              NUMBER OF TIME STEPS =    30

                               MULTIPLIER FOR DELT =     1.000

                            INITIAL TIME STEP SIZE =   87666.66    

 REUSING NON-PARAMETER GHB CELLS FROM LAST STRESS PERIOD

      2 GHB CELLS

 REUSING STREAM SEGMENT DATA FROM LAST STRESS PERIOD



            AREAL INFILTRATION RATE
 READING ON UNIT   19 WITH FORMAT: (FREE)              

            1           2           3           4           5           6           7           8           9          10
 ........................................................................................................................
   1   1.0000E-10  2.0000E-10   0.000       0.000       0.000       0.000       0.000       0.000       0.000       0.000    
   2   2.0000E-10  1.0000E-10  2.0000E-10   0.000       0.000      8.0000E-10  8.0000E-10  5.0000E-10   0.000       0.000    
   3    0.000      5.0000E-10  1.0000E-10  1.0000E-10  8.0000E-10  8.0000E-10  5.0000E-10  5.0000E-10   0.000       0.000    
   4   8.0000E-10  5.0000E-10  1.0000E-10  1.0000E-10  1.0000E-10  1.0000E-10  1.0000E-10  1.0000E-10  2.0000E-10   0.000    
   5   8.0000E-10  5.0000E-10  1.0000E-10  1.0000E-10  1.0000E-10  1.0000E-10  1.0000E-10  1.0000E-10  1.0000E-10  1.0000E-10
   6   8.0000E-10  5.0000E-10  5.0000E-10  2.0000E-10  2.0000E-10  1.0000E-10  1.0000E-10  1.0000E-10  1.0000E-10  5.0000E-10
   7   8.0000E-10  5.0000E-10  5.0000E-10  2.0000E-10  2.0000E-10  1.0000E-10  1.0000E-10  2.0000E-10  2.0000E-10   0.000    
   8    0.000      5.0000E-10  5.0000E-10  2.0000E-10  2.0000E-10  1.0000E-10  1.0000E-10  2.0000E-10  5.0000E-10   0.000    
   9    0.000      5.0000E-10  5.0000E-10  2.0000E-10  2.0000E-10  1.0000E-10  1.0000E-10  2.0000E-10  5.0000E-10   0.000    
  10    0.000      5.0000E-10  5.0000E-10  2.0000E-10  2.0000E-10  1.0000E-10  1.0000E-10  2.0000E-10  5.0000E-10  8.0000E-10
  11    0.000      1.0000E-10  1.0000E-10  1.0000E-10  1.0000E-10  1.0000E-10  1.0000E-10  2.0000E-10  5.0000E-10   0.000    
  12   1.0000E-10  1.0000E-10  1.0000E-10  1.0000E-10  1.0000E-10  1.0000E-10  1.0000E-10  1.0000E-10  2.0000E-10   0.000    
  13   1.0000E-10  1.0000E-10  2.0000E-10  2.0000E-10  2.0000E-10  2.0000E-10  2.0000E-10  1.0000E-10  1.0000E-10   0.000    
  14    0.000      2.0000E-10  5.0000E-10  5.0000E-10  5.0000E-10  5.0000E-10  5.0000E-10  2.0000E-10  1.0000E-10   0.000    
  15    0.000       0.000      8.0000E-10  8.0000E-10  8.0000E-10  8.0000E-10   0.000       0.000       0.000       0.000    

                  ET RATE =  1.500000E-07

 USING ET EXTINCTION DEPTH FROM PREVIOUS STRESS PERIOD. CURRENT PERIOD IS:      19

 USING EXTINCTION WATER CONTENT FROM PREVIOUS STRESS PERIOD. CURRENT PERIOD IS:      19

 USING AIR ENTRY PRESSURE FROM PREVIOUS STRESS PERIOD. CURRENT PERIOD IS:      19

 USING ROOT PRESSURE HEAD FROM PREVIOUS STRESS PERIOD. CURRENT PERIOD IS:      19

 USING ROOT ACTIVITY FROM PREVIOUS STRESS PERIOD. CURRENT PERIOD IS:      19

 PROCESSING AG STRESS PERIOD DATA

 READING AG STRESS PERIOD DATA

 READING IRRIGATION SEGMENT

 READING IRRIGATION WELL

 READING SUPPLEMENTAL WELL

 NO IRRPOND OR REUSING IRRPOND DATA FROM LAST STRESS PERIOD

 END PROCESSING AG STRESS PERIOD DATA OPTIONS
 
 SOLVING FOR HEAD 
                                                   Max.-Head-Change                         Max.-Flux-Residual
  Residual-Control   Outer-Iter.   Inner-Iter.     Column Row Layer    Maximum-Head-Change  Column Row Layer    Maximum-Flux-Residual          L2-NORM 
          0                 1           2             3   13     1      -0.7294804880E-02       3   13    1        -0.4623679130E+00      0.8723034896E+00
          0                 2           2             4    7     1      -0.4663636588E-01       4    7    1        -0.2504734960E+01      0.6153528584E+01
          0                 3           2             4    7     1       0.4844659186E-01       4    7    1         0.2674701799E+01      0.6551694926E+01
          0                 4           2             4    7     1      -0.1927774152E-02       4    8    1        -0.1094000615E+00      0.2679806815E+00
          0                 5           1             4    7     1       0.2377022765E-04       4    8    1         0.1386425347E-02      0.3397598485E-02

    ------------------------------------------------
       NWT REQUIRED            5 OUTER ITERATIONS 
       AND A TOTAL OF          9 INNER ITERATIONS.
    ------------------------------------------------

 OUTPUT CONTROL FOR STRESS PERIOD   19   TIME STEP    1
    PRINT BUDGET
    SAVE BUDGET
 UBDSV1 SAVING "         STORAGE" ON UNIT 102 AT TIME STEP 1, STRESS PERIOD 19
 UBDSV2 SAVING "   CONSTANT HEAD" ON UNIT 102 AT TIME STEP 1, STRESS PERIOD 19
 UBDSV1 SAVING "FLOW RIGHT FACE " ON UNIT 102 AT TIME STEP 1, STRESS PERIOD 19
 UBDSV1 SAVING "FLOW FRONT FACE " ON UNIT 102 AT TIME STEP 1, STRESS PERIOD 19

  HEAD DEP BOUNDS   PERIOD   19   STEP     1
 BOUNDARY      1   LAYER   1   ROW    13   COL     1   RATE   -0.293221    
 BOUNDARY      2   LAYER   1   ROW    14   COL     9   RATE    0.285785    



 STREAM LISTING     PERIOD     19   STEP        1

 LAYER ROW COL. STREAM  RCH.  FLOW INTO     FLOW TO   FLOW OUT OF   OVRLND.     DIRECT     STREAM       STREAM     STREAM     STREAM   STREAMBED  STREAMBED
                SEG.NO.  NO.  STRM. RCH.    AQUIFER    STRM. RCH.    RUNOFF     PRECIP       ET          HEAD       DEPTH      WIDTH   CONDCTNC.   GRADIENT

   1    1    1     1     1    4.3652E+01  3.1614E-01   4.3336E+01  0.000E+00  0.000E+00  0.000E+00  1.09441E+03  1.357E+00  1.612E+01  7.255E-02  1.452E+00
   1    2    2     1     2    4.3336E+01  4.8972E-01   4.2846E+01  0.000E+00  0.000E+00  0.000E+00  1.08941E+03  1.355E+00  1.607E+01  1.125E-01  1.452E+00
   1    3    3     1     3    4.2846E+01  4.1777E-01   4.2428E+01  0.000E+00  0.000E+00  0.000E+00  1.08377E+03  1.351E+00  1.600E+01  9.601E-02  1.450E+00
   1    3    4     1     4    4.2428E+01  3.8480E-01   4.2043E+01  0.000E+00  0.000E+00  0.000E+00  1.07876E+03  1.349E+00  1.594E+01  8.849E-02  1.450E+00
   1    4    5     2     1    4.0043E+01  3.5862E-01   3.9685E+01  0.000E+00  0.000E+00  0.000E+00  1.07353E+03  1.598E+00  1.200E+01  7.800E-02  1.533E+00
   1    5    6     2     2    3.9685E+01  2.7540E-01   3.9409E+01  0.000E+00  0.000E+00  0.000E+00  1.06810E+03  1.590E+00  1.200E+01  6.000E-02  1.530E+00
   1    6    6     2     3    3.9409E+01  2.7500E-01   3.9134E+01  0.000E+00  0.000E+00  0.000E+00  1.06338E+03  1.583E+00  1.200E+01  6.000E-02  1.528E+00
   1    7    6     2     4    3.9134E+01  2.7461E-01   3.8860E+01  0.000E+00  0.000E+00  0.000E+00  1.05865E+03  1.577E+00  1.200E+01  6.000E-02  1.526E+00
   1    8    6     2     5    3.8860E+01  2.7421E-01   3.8585E+01  0.000E+00  0.000E+00  0.000E+00  1.05393E+03  1.570E+00  1.200E+01  6.000E-02  1.523E+00
   1    3    5     3     1    2.0000E+00  2.8252E-01   1.7175E+00  0.000E+00  0.000E+00  0.000E+00  1.07555E+03  1.909E+00  9.636E+00  7.227E-02  1.955E+00
   1    3    6     3     2    1.7175E+00  2.4905E-01   1.4684E+00  0.000E+00  0.000E+00  0.000E+00  1.07264E+03  1.727E+00  8.909E+00  6.682E-02  1.864E+00
   1    3    7     3     3    1.4684E+00  1.9718E-01   1.2712E+00  0.000E+00  0.000E+00  0.000E+00  1.06987E+03  1.555E+00  8.218E+00  5.547E-02  1.777E+00
   1    4    8     3     4    1.2712E+00  2.2567E-01   1.0456E+00  0.000E+00  0.000E+00  0.000E+00  1.06682E+03  1.364E+00  7.455E+00  6.709E-02  1.682E+00
   1    5    8     3     5    1.0456E+00  1.5790E-01   8.8768E-01  0.000E+00  0.000E+00  0.000E+00  1.06362E+03  1.164E+00  6.655E+00  4.991E-02  1.582E+00
   1    6    8     3     6    8.8768E-01  5.5980E-02   8.3170E-01  0.000E+00  0.000E+00  0.000E+00  1.06158E+03  1.036E+00  6.145E+00  1.844E-02  1.518E+00
   1    5   10     4     1    1.0000E+01  9.0919E-02   9.9091E+00  0.000E+00  0.000E+00  0.000E+00  1.07836E+03  6.368E-01  1.000E+01  2.500E-02  1.212E+00
   1    5    9     4     2    9.9091E+00  1.8158E-01   9.7275E+00  0.000E+00  0.000E+00  0.000E+00  1.07154E+03  6.315E-01  1.000E+01  5.000E-02  1.211E+00
   1    6    8     4     3    9.7275E+00  1.2689E-01   9.6006E+00  0.000E+00  0.000E+00  0.000E+00  1.06381E+03  6.256E-01  1.000E+01  3.500E-02  1.209E+00
   1    6    8     5     1    1.0432E+01  2.2686E-01   1.0205E+01  0.000E+00  0.000E+00  0.000E+00  1.05868E+03  6.790E-01  1.542E+01  6.166E-02  1.226E+00
   1    7    7     5     2    1.0205E+01  2.7894E-01   9.9265E+00  0.000E+00  0.000E+00  0.000E+00  1.05417E+03  6.732E-01  1.519E+01  7.594E-02  1.224E+00
   1    8    7     5     3    9.9265E+00  1.9221E-01   9.7343E+00  0.000E+00  0.000E+00  0.000E+00  1.04992E+03  6.676E-01  1.497E+01  5.241E-02  1.223E+00
   1    8    6     5     4    9.7343E+00  1.3577E-01   9.5985E+00  0.000E+00  0.000E+00  0.000E+00  1.04691E+03  6.637E-01  1.482E+01  3.706E-02  1.221E+00
   1    9    6     6     1    1.0688E+01  2.2372E-01   1.0464E+01  0.000E+00  0.000E+00  0.000E+00  1.04346E+03  7.287E-01  1.200E+01  6.000E-02  1.243E+00
   1   10    7     6     2    1.0464E+01  2.2317E-01   1.0241E+01  0.000E+00  0.000E+00  0.000E+00  1.03890E+03  7.194E-01  1.200E+01  6.000E-02  1.240E+00
   1   11    7     6     3    1.0241E+01  2.2261E-01   1.0018E+01  0.000E+00  0.000E+00  0.000E+00  1.03435E+03  7.101E-01  1.200E+01  6.000E-02  1.237E+00
   1   12    7     6     4    1.0018E+01  2.2204E-01   9.7963E+00  0.000E+00  0.000E+00  0.000E+00  1.02979E+03  7.007E-01  1.200E+01  6.000E-02  1.234E+00
   1   13    7     6     5    9.7963E+00 -1.3220E-01   9.9285E+00  0.000E+00  0.000E+00  0.000E+00  1.02661E+03  6.988E-01  1.200E+01  2.400E-01 -1.836E-01
   1   14    9     7     1    1.5000E+02  1.3362E+00   1.4866E+02  0.000E+00  0.000E+00  0.000E+00  1.03987E+03  2.288E+00  5.529E+01  5.593E-01  7.963E-01
   1   13    8     7     2    1.4866E+02  1.8178E+00   1.4685E+02  0.000E+00  0.000E+00  0.000E+00  1.03478E+03  2.279E+00  5.526E+01  6.148E-01  9.856E-01
   1   13    7     7     3    1.4685E+02  1.4137E+00   1.4543E+02  0.000E+00  0.000E+00  0.000E+00  1.02969E+03  2.271E+00  5.522E+01  5.585E-01  8.438E-01
   1   13    6     8     1    1.5536E+02  7.7646E-01   1.5458E+02  0.000E+00  0.000E+00  0.000E+00  1.02473E+03  2.852E+00  4.135E+01  4.213E-01  6.143E-01
   1   13    5     8     2    1.5458E+02  5.2983E-02   1.5453E+02  0.000E+00  0.000E+00  0.000E+00  1.01847E+03  2.849E+00  4.131E+01  4.209E-01  4.196E-02
   1   13    4     8     3    1.5453E+02 -3.2203E+00   1.5775E+02  0.000E+00  0.000E+00  0.000E+00  1.01223E+03  2.860E+00  4.146E+01  4.225E+00 -2.541E-01
   1   13    3     8     4    1.5775E+02 -4.2599E+00   1.6201E+02  0.000E+00  0.000E+00  0.000E+00  1.00601E+03  2.885E+00  4.183E+01  4.263E+00 -3.331E-01
   1   13    2     8     5    1.6201E+02 -3.2293E+00   1.6524E+02  0.000E+00  0.000E+00  0.000E+00  9.99785E+02  2.910E+00  4.220E+01  4.300E+00 -2.503E-01
   1   13    1     8     6    1.6524E+02 -2.3695E+00   1.6761E+02  0.000E+00  0.000E+00  0.000E+00  9.94804E+02  2.929E+00  4.247E+01  2.597E+00 -3.042E-01
   1    8    6     9     1    3.7496E+01  0.0000E+00   3.7496E+01  0.000E+00  0.000E+00  0.000E+00  1.08376E+03  5.008E+00  4.000E+00  0.000E+00  2.669E+00
   1    8    5     9     2    3.7496E+01  0.0000E+00   3.7496E+01  0.000E+00  0.000E+00  0.000E+00  1.08326E+03  5.008E+00  4.000E+00  0.000E+00  2.669E+00



 UBDSV3 SAVING "           GW ET" ON UNIT  61 AT TIME STEP 1, STRESS PERIOD 19
 UBDSV3 SAVING "    UZF RECHARGE" ON UNIT  61 AT TIME STEP 1, STRESS PERIOD 19
 UBDSV3 SAVING " SURFACE LEAKAGE" ON UNIT  61 AT TIME STEP 1, STRESS PERIOD 19
 UBDSV3 SAVING "       HORT+DUNN" ON UNIT  61 AT TIME STEP 1, STRESS PERIOD 19
 UBDSV3 SAVING "  STORAGE CHANGE" ON UNIT  61 AT TIME STEP 1, STRESS PERIOD 19


UNSATURATED ZONE PACKAGE VOLUMETRIC BUDGET FOR  TIME STEP     1 STRESS PERIOD   19
  ------------------------------------------------------------------------------



     CUMULATIVE VOLUMES      L**3       RATES FOR THIS TIME STEP      L**3/T
     ------------------                 ------------------------

           IN:                                      IN:
           ---                                      ---
        INFILTRATION =   478615508.2760          INFILTRATION =          38.3445

          OUT:                                     OUT:
          ----                                     ----
              UZF ET =   472561334.3227                UZF ET =          23.3175
        UZF RECHARGE =       73224.0000          UZF RECHARGE =       0.0000E+00

            IN - OUT =     5980949.9533              IN - OUT =          15.0270

          STORAGE:                                 STORAGE:
          --------                                 --------
      STORAGE CHANGE =     5981151.6362        STORAGE CHANGE =          15.0270

 PERCENT DISCREPANCY IS DIFFERENCE BETWEEN IN-OUT MINUS CHANGE IN STORAGE
 DIVIDED BY THE AVERAGE OF IN AND OUT TIMES 100

 PERCENT DISCREPANCY =          -0.00     PERCENT DISCREPANCY =           0.00






 

            AG WELLS      PERIOD   19   STEP   1
 AG WELL      1   LAYER   1   ROW     6   COL     4   RATE     0.00000    
 AG WELL      2   LAYER   1   ROW     6   COL     5   RATE     0.00000    
 AG WELL      3   LAYER   1   ROW     7   COL     4   RATE     0.00000    
 AG WELL      4   LAYER   1   ROW     7   COL     5   RATE     0.00000    
 AG WELL      5   LAYER   1   ROW     8   COL     4   RATE     0.00000    
 AG WELL      6   LAYER   1   ROW     8   COL     5   RATE     0.00000    
 
 

   DIVERSION SEGMENTS     PERIOD   19   STEP   1
 SEGMENT      9   RATE     37.4962    
 
 

        SW IRRIGATION     PERIOD   19   STEP   1
 SEGMENT      9   ROW     6   COL     4   RATE     6.24950    
 SEGMENT      9   ROW     6   COL     5   RATE     6.24950    
 SEGMENT      9   ROW     7   COL     4   RATE     6.24950    
 SEGMENT      9   ROW     7   COL     5   RATE     6.24950    
 SEGMENT      9   ROW     8   COL     4   RATE     6.24950    
 SEGMENT      9   ROW     8   COL     5   RATE     6.24950    
 
 

        GW IRRIGATION     PERIOD   19   STEP   1
 AG WELL      1   ROW     6   COL     4   RATE     0.00000    
 AG WELL      2   ROW     6   COL     5   RATE     0.00000    
 AG WELL      3   ROW     7   COL     4   RATE     0.00000    
 AG WELL      4   ROW     7   COL     5   RATE     0.00000    
 AG WELL      5   ROW     8   COL     4   RATE     0.00000    
 AG WELL      6   ROW     8   COL     5   RATE     0.00000    
 
1
  VOLUMETRIC BUDGET FOR AGRICULTURAL FIELDS AT  END OF TIME STEP    1, STRESS PERIOD  19
  ------------------------------------------------------------------------------

     CUMULATIVE VOLUMES      L**3       RATES FOR THIS TIME STEP      L**3/T
     ------------------                 ------------------------

           IN:                                      IN:
           ---                                      ---
               AG WELLS  =    49138700.0000                 AG WELLS  =           0.0000
      DIVERSION SEGMENTS =   391473632.0000        DIVERSION SEGMENTS =          37.4962
       IRRIGATION PONDS  =           0.0000         IRRIGATION PONDS  =           0.0000
           GW IRRIGATION =           0.0000             GW IRRIGATION =           0.0000
           SW IRRIGATION =           0.0000             SW IRRIGATION =           0.0000
        SYSTEM LOSSES GW =           0.0000          SYSTEM LOSSES GW =           0.0000
        SYSTEM LOSSES SW =           0.0000          SYSTEM LOSSES SW =           0.0000

                TOTAL IN =   440612320.0000                  TOTAL IN =          37.4962

          OUT:                                     OUT:
          ----                                     ----
               AG WELLS  =           0.0000                 AG WELLS  =           0.0000
      DIVERSION SEGMENTS =           0.0000        DIVERSION SEGMENTS =           0.0000
       IRRIGATION PONDS  =           0.0000         IRRIGATION PONDS  =           0.0000
           GW IRRIGATION =    49138700.0000             GW IRRIGATION =           0.0000
           SW IRRIGATION =   391481152.0000             SW IRRIGATION =          37.4970
        SYSTEM LOSSES GW =           0.0000          SYSTEM LOSSES GW =           0.0000
        SYSTEM LOSSES SW =           0.0000          SYSTEM LOSSES SW =           0.0000

               TOTAL OUT =   440619840.0000                 TOTAL OUT =          37.4970

                IN - OUT =       -7520.0000                  IN - OUT =      -7.5150E-04

     PERCENT DISCREPANCY =          -0.00         PERCENT DISCREPANCY =          -0.00



1
  VOLUMETRIC BUDGET FOR ENTIRE MODEL AT END OF TIME STEP    1, STRESS PERIOD  19
  ------------------------------------------------------------------------------

     CUMULATIVE VOLUMES      L**3       RATES FOR THIS TIME STEP      L**3/T
     ------------------                 ------------------------

           IN:                                      IN:
           ---                                      ---
             STORAGE     =    97166384.0000               STORAGE     =           3.2226
       CONSTANT HEAD     =           0.0000         CONSTANT HEAD     =           0.0000
     HEAD DEP BOUNDS     =    12825655.0000       HEAD DEP BOUNDS     =           0.2858
      STREAM LEAKAGE     =   539580928.0000        STREAM LEAKAGE     =          11.7564
        UZF RECHARGE     =       73223.9531          UZF RECHARGE     =           0.0000
               GW ET     =           0.0000                 GW ET     =           0.0000
     SURFACE LEAKAGE     =           0.0000       SURFACE LEAKAGE     =           0.0000
           AG WELLS      =           0.0000             AG WELLS      =           0.0000

                TOTAL IN =   649646208.0000                  TOTAL IN =          15.2648

          OUT:                                     OUT:
          ----                                     ----
             STORAGE     =   101393360.0000               STORAGE     =           1.6903
       CONSTANT HEAD     =           0.0000         CONSTANT HEAD     =           0.0000
     HEAD DEP BOUNDS     =    13071947.0000       HEAD DEP BOUNDS     =           0.2932
      STREAM LEAKAGE     =   483730368.0000        STREAM LEAKAGE     =          13.2113
        UZF RECHARGE     =           0.0000          UZF RECHARGE     =           0.0000
               GW ET     =     2316685.7500                 GW ET     =       6.9823E-02
     SURFACE LEAKAGE     =           0.0000       SURFACE LEAKAGE     =           0.0000
           AG WELLS      =    49138700.0000             AG WELLS      =           0.0000

               TOTAL OUT =   649651008.0000                 TOTAL OUT =          15.2646

                IN - OUT =       -4800.0000                  IN - OUT =       1.2207E-04

     PERCENT DISCREPANCY =          -0.00         PERCENT DISCREPANCY =           0.00






         TIME SUMMARY AT END OF TIME STEP    1 IN STRESS PERIOD   19
                    SECONDS     MINUTES      HOURS       DAYS        YEARS
                    -----------------------------------------------------------
   TIME STEP LENGTH  87667.      1461.1      24.352      1.0147     2.77799E-03
 STRESS PERIOD TIME  87667.      1461.1      24.352      1.0147     2.77799E-03
         TOTAL TIME 4.48841E+07 7.48069E+05  12468.      519.49      1.4223    
1
 
 SOLVING FOR HEAD 
                                                   Max.-Head-Change                         Max.-Flux-Residual
  Residual-Control   Outer-Iter.   Inner-Iter.     Column Row Layer    Maximum-Head-Change  Column Row Layer    Maximum-Flux-Residual          L2-NORM 
          0                 1           2             1    1     1       0.2826032966E-02       4   13    1         0.1609993394E+00      0.4010638690E+00
          0                 2           2             7   13     1      -0.2274561112E-02       7   13    1        -0.1262162049E+00      0.1311667851E+00
          0                 3           2             4    7     1      -0.9221592916E-03       5    8    1        -0.4959983758E-01      0.1221831887E+00
          0                 4           2             4    7     1      -0.1663568958E-03       4    7    1        -0.8934481939E-02      0.2585494188E-01
          0                 5           2             4    7     1       0.7119057884E-03       4    7    1         0.3930314725E-01      0.9638050136E-01
          0                 6           2             4    7     1       0.2751438217E-03       5    8    1         0.1519010707E-01      0.3722998923E-01
          0                 7           2             4    7     1      -0.9643896259E-03       5    8    1        -0.5472591192E-01      0.1347866105E+00
          0                 8           2             4    7     1       0.5517042691E-03       5    6    1         0.3217738568E-01      0.7903815060E-01
          0                 9           2             4    7     1       0.3202452523E-03       5    6    1         0.1867767044E-01      0.4580416349E-01
          0                10           2             4    7     1      -0.4457202430E-03       4    8    1        -0.2671588598E-01      0.6601998243E-01
                                                   Max.-Head-Change                         Max.-Flux-Residual
  Residual-Control   Outer-Iter.   Inner-Iter.     Column Row Layer    Maximum-Head-Change  Column Row Layer    Maximum-Flux-Residual          L2-NORM 
          0                11           2             4    7     1       0.1893821786E-03       5    6    1         0.1166476249E-01      0.2906436921E-01
          0                12           2             4    7     1      -0.1633189941E-03       4    8    1        -0.1033628547E-01      0.2659173208E-01
          0                13           2             4    7     1      -0.1921764884E-03       4    8    1        -0.1216251151E-01      0.3160073355E-01
          0                14           2             4    7     1       0.1883327584E-03       5    7    1         0.1224617389E-01      0.3086607496E-01
          0                15           2             4    7     1       0.1555440714E-03       5    7    1         0.1011400368E-01      0.2537251573E-01
          0                16           1             4   13     1      -0.5516623119E-04       4   13    1        -0.3261513012E-02      0.5985045781E-02

    ------------------------------------------------
       NWT REQUIRED           16 OUTER ITERATIONS 
       AND A TOTAL OF         31 INNER ITERATIONS.
    ------------------------------------------------

 NO OUTPUT CONTROL FOR STRESS PERIOD   19   TIME STEP    2
 
 SOLVING FOR HEAD 
                                                   Max.-Head-Change                         Max.-Flux-Residual
  Residual-Control   Outer-Iter.   Inner-Iter.     Column Row Layer    Maximum-Head-Change  Column Row Layer    Maximum-Flux-Residual          L2-NORM 
          0                 1           2             1    1     1       0.2824126312E-02       4   13    1         0.1483768973E+00      0.3723384043E+00
          0                 2           2             4    7     1      -0.6091521836E-01       4    6    1        -0.3271656791E+01      0.8049753571E+01
          0                 3           2             4    7     1       0.5129422638E-01       4    7    1         0.2831896082E+01      0.6937759926E+01
          0                 4           2             4    7     1       0.9917881647E-02       5    6    1         0.5475790534E+00      0.1340788668E+01
          0                 5           2             4    7     1      -0.3947399044E-03       5    8    1        -0.2240156972E-01      0.5486073116E-01
          0                 6           1             4    7     1       0.4871036967E-05       5    8    1         0.2841138876E-03      0.6973679571E-03

    ------------------------------------------------
       NWT REQUIRED            6 OUTER ITERATIONS 
       AND A TOTAL OF         11 INNER ITERATIONS.
    ------------------------------------------------

 NO OUTPUT CONTROL FOR STRESS PERIOD   19   TIME STEP    3
 
 SOLVING FOR HEAD 
                                                   Max.-Head-Change                         Max.-Flux-Residual
  Residual-Control   Outer-Iter.   Inner-Iter.     Column Row Layer    Maximum-Head-Change  Column Row Layer    Maximum-Flux-Residual          L2-NORM 
          0                 1           2             4   13     1       0.3209609182E-02       4   13    1         0.1853110830E+00      0.4363198446E+00
          0                 2           2             7   13     1      -0.2275193809E-02       7   13    1        -0.1262482071E+00      0.1320533477E+00
          0                 3           2             4    7     1      -0.6969249265E-01       5    8    1        -0.3743072470E+01      0.9208345225E+01
          0                 4           2             4    7     1       0.7255088598E-01       5    6    1         0.4005423652E+01      0.9811249998E+01
          0                 5           2             4    7     1      -0.2888086559E-02       4    6    1        -0.1658298331E+00      0.4022086878E+00
          0                 6           1             4    7     1       0.3563765814E-04       4    6    1         0.2103443404E-02      0.5101402990E-02

    ------------------------------------------------
       NWT REQUIRED            6 OUTER ITERATIONS 
       AND A TOTAL OF         11 INNER ITERATIONS.
    ------------------------------------------------

 NO OUTPUT CONTROL FOR STRESS PERIOD   19   TIME STEP    4
 
 SOLVING FOR HEAD 
                                                   Max.-Head-Change                         Max.-Flux-Residual
  Residual-Control   Outer-Iter.   Inner-Iter.     Column Row Layer    Maximum-Head-Change  Column Row Layer    Maximum-Flux-Residual          L2-NORM 
          0                 1           2             4   13     1       0.3713802433E-02       4   13    1         0.2142145571E+00      0.4769897016E+00
          0                 2           2             7   13     1      -0.2275568053E-02       7   13    1        -0.1262660973E+00      0.1332054389E+00
          0                 3           2             4    7     1      -0.6969269613E-01       5    8    1        -0.3743084243E+01      0.9208465724E+01
          0                 4           2             4    7     1       0.7255107258E-01       5    6    1         0.4005433993E+01      0.9811236741E+01
          0                 5           2             4    7     1      -0.2888095647E-02       4    6    1        -0.1658375474E+00      0.4022113394E+00
          0                 6           1             4    7     1       0.3563777038E-04       4    6    1         0.2103543230E-02      0.5101448303E-02

    ------------------------------------------------
       NWT REQUIRED            6 OUTER ITERATIONS 
       AND A TOTAL OF         11 INNER ITERATIONS.
    ------------------------------------------------

 NO OUTPUT CONTROL FOR STRESS PERIOD   19   TIME STEP    5
 
 SOLVING FOR HEAD 
                                                   Max.-Head-Change                         Max.-Flux-Residual
  Residual-Control   Outer-Iter.   Inner-Iter.     Column Row Layer    Maximum-Head-Change  Column Row Layer    Maximum-Flux-Residual          L2-NORM 
          0                 1           2             4   13     1       0.4170236868E-02       4   13    1         0.2403298902E+00      0.5078064465E+00
          0                 2           2             7   13     1      -0.2276038224E-02       7   13    1        -0.1262894585E+00      0.1355346243E+00
          0                 3           2             4    7     1      -0.6969286856E-01       5    8    1        -0.3743094303E+01      0.9208556986E+01
          0                 4           2             4    7     1       0.7255122682E-01       5    6    1         0.4005442544E+01      0.9811271068E+01
          0                 5           2             4    7     1      -0.2888103424E-02       4    6    1        -0.1658450895E+00      0.4022168648E+00
          0                 6           1             4    7     1       0.3563786604E-04       4    6    1         0.2103640831E-02      0.5101728590E-02

    ------------------------------------------------
       NWT REQUIRED            6 OUTER ITERATIONS 
       AND A TOTAL OF         11 INNER ITERATIONS.
    ------------------------------------------------

 NO OUTPUT CONTROL FOR STRESS PERIOD   19   TIME STEP    6
 
 SOLVING FOR HEAD 
                                                   Max.-Head-Change                         Max.-Flux-Residual
  Residual-Control   Outer-Iter.   Inner-Iter.     Column Row Layer    Maximum-Head-Change  Column Row Layer    Maximum-Flux-Residual          L2-NORM 
          0                 1           2             4   13     1       0.4578125056E-02       4   13    1         0.2638941875E+00      0.5353872987E+00
          0                 2           2             7   13     1      -0.2276577827E-02       7   13    1        -0.1263168100E+00      0.1350693403E+00
          0                 3           2             4    7     1      -0.6969303835E-01       5    8    1        -0.3743104076E+01      0.9208693901E+01
          0                 4           2             4    7     1       0.7255137652E-01       5    6    1         0.4005450835E+01      0.9811325466E+01
          0                 5           2             4    7     1      -0.2888111000E-02       4    6    1        -0.1658525312E+00      0.4022204030E+00
          0                 6           1             4    7     1       0.3563795968E-04       4    6    1         0.2103737176E-02      0.5101566020E-02

    ------------------------------------------------
       NWT REQUIRED            6 OUTER ITERATIONS 
       AND A TOTAL OF         11 INNER ITERATIONS.
    ------------------------------------------------

 NO OUTPUT CONTROL FOR STRESS PERIOD   19   TIME STEP    7
 
 SOLVING FOR HEAD 
                                                   Max.-Head-Change                         Max.-Flux-Residual
  Residual-Control   Outer-Iter.   Inner-Iter.     Column Row Layer    Maximum-Head-Change  Column Row Layer    Maximum-Flux-Residual          L2-NORM 
          0                 1           2             4   13     1       0.4946392881E-02       4   13    1         0.2851608062E+00      0.5616709048E+00
          0                 2           2             7   13     1      -0.2277211005E-02       7   13    1        -0.1263494805E+00      0.1359926909E+00
          0                 3           2             4    7     1      -0.6969320623E-01       5    8    1        -0.3743113797E+01      0.9208799692E+01
          0                 4           2             4    7     1       0.7255152610E-01       5    6    1         0.4005459130E+01      0.9811348747E+01
          0                 5           2             4    7     1      -0.2888118550E-02       4    6    1        -0.1658598759E+00      0.4022241390E+00
          0                 6           1             4    7     1       0.3563805266E-04       4    6    1         0.2103832221E-02      0.5101609343E-02

    ------------------------------------------------
       NWT REQUIRED            6 OUTER ITERATIONS 
       AND A TOTAL OF         11 INNER ITERATIONS.
    ------------------------------------------------

 NO OUTPUT CONTROL FOR STRESS PERIOD   19   TIME STEP    8
 
 SOLVING FOR HEAD 
                                                   Max.-Head-Change                         Max.-Flux-Residual
  Residual-Control   Outer-Iter.   Inner-Iter.     Column Row Layer    Maximum-Head-Change  Column Row Layer    Maximum-Flux-Residual          L2-NORM 
          0                 1           2             4   13     1       0.5279116515E-02       4   13    1         0.3043669080E+00      0.5865033784E+00
          0                 2           2             7   13     1      -0.2277921959E-02       7   13    1        -0.1263865937E+00      0.1369116603E+00
          0                 3           2             4    7     1      -0.6969337589E-01       5    8    1        -0.3743123469E+01      0.9208899381E+01
          0                 4           2             4    7     1       0.7255167575E-01       5    6    1         0.4005467412E+01      0.9811371986E+01
          0                 5           2             4    7     1      -0.2888126082E-02       4    6    1        -0.1658671327E+00      0.4022278661E+00
          0                 6           1             4    7     1       0.3563814630E-04       4    6    1         0.2103926155E-02      0.5101660544E-02

    ------------------------------------------------
       NWT REQUIRED            6 OUTER ITERATIONS 
       AND A TOTAL OF         11 INNER ITERATIONS.
    ------------------------------------------------

 NO OUTPUT CONTROL FOR STRESS PERIOD   19   TIME STEP    9
 
 SOLVING FOR HEAD 
                                                   Max.-Head-Change                         Max.-Flux-Residual
  Residual-Control   Outer-Iter.   Inner-Iter.     Column Row Layer    Maximum-Head-Change  Column Row Layer    Maximum-Flux-Residual          L2-NORM 
          0                 1           2             4   13     1       0.5579692492E-02       4   13    1         0.3217098064E+00      0.6098278744E+00
          0                 2           2             7   13     1      -0.2278695323E-02       7   13    1        -0.1264272866E+00      0.1378133215E+00
          0                 3           2             4    7     1      -0.6969354546E-01       5    8    1        -0.3743133089E+01      0.9208993364E+01
          0                 4           2             4    7     1       0.7255182538E-01       5    6    1         0.4005475691E+01      0.9811395165E+01
          0                 5           2             4    7     1      -0.2888133591E-02       4    6    1        -0.1658742946E+00      0.4022315470E+00
          0                 6           1             4    7     1       0.3563823883E-04       4    6    1         0.2104018815E-02      0.5101704156E-02

    ------------------------------------------------
       NWT REQUIRED            6 OUTER ITERATIONS 
       AND A TOTAL OF         11 INNER ITERATIONS.
    ------------------------------------------------

 NO OUTPUT CONTROL FOR STRESS PERIOD   19   TIME STEP   10
 
 SOLVING FOR HEAD 
                                                   Max.-Head-Change                         Max.-Flux-Residual
  Residual-Control   Outer-Iter.   Inner-Iter.     Column Row Layer    Maximum-Head-Change  Column Row Layer    Maximum-Flux-Residual          L2-NORM 
          0                 1           2             4   13     1       0.5851562514E-02       4   13    1         0.3373895991E+00      0.6316533933E+00
          0                 2           2             7   13     1      -0.2279528554E-02       7   13    1        -0.1264714002E+00      0.1386916944E+00
          0                 3           2             4    7     1      -0.6969371307E-01       5    8    1        -0.3743142658E+01      0.9209082088E+01
          0                 4           2             4    7     1       0.7255197491E-01       5    6    1         0.4005483975E+01      0.9811418272E+01
          0                 5           2             4    7     1      -0.2888141077E-02       4    6    1        -0.1658813709E+00      0.4022352051E+00
          0                 6           1             4    7     1       0.3563833090E-04       4    6    1         0.2104110404E-02      0.5101767034E-02

    ------------------------------------------------
       NWT REQUIRED            6 OUTER ITERATIONS 
       AND A TOTAL OF         11 INNER ITERATIONS.
    ------------------------------------------------

 NO OUTPUT CONTROL FOR STRESS PERIOD   19   TIME STEP   11
 
 SOLVING FOR HEAD 
                                                   Max.-Head-Change                         Max.-Flux-Residual
  Residual-Control   Outer-Iter.   Inner-Iter.     Column Row Layer    Maximum-Head-Change  Column Row Layer    Maximum-Flux-Residual          L2-NORM 
          0                 1           2             4   13     1       0.6097489614E-02       4   13    1         0.3515666527E+00      0.6520193125E+00
          0                 2           2             7   13     1      -0.2280399938E-02       7   13    1        -0.1265177245E+00      0.1395406101E+00
          0                 3           2             4    7     1      -0.6969388242E-01       5    8    1        -0.3743152178E+01      0.9209165781E+01
          0                 4           2             4    7     1       0.7255212450E-01       5    6    1         0.4005492246E+01      0.9811441316E+01
          0                 5           2             4    7     1      -0.2888148544E-02       4    6    1        -0.1658883545E+00      0.4022388002E+00
          0                 6           1             4    7     1       0.3563842298E-04       4    6    1         0.2104200778E-02      0.5101811191E-02

    ------------------------------------------------
       NWT REQUIRED            6 OUTER ITERATIONS 
       AND A TOTAL OF         11 INNER ITERATIONS.
    ------------------------------------------------

 NO OUTPUT CONTROL FOR STRESS PERIOD   19   TIME STEP   12
 
 SOLVING FOR HEAD 
                                                   Max.-Head-Change                         Max.-Flux-Residual
  Residual-Control   Outer-Iter.   Inner-Iter.     Column Row Layer    Maximum-Head-Change  Column Row Layer    Maximum-Flux-Residual          L2-NORM 
          0                 1           2             4   13     1       0.6320114583E-02       4   13    1         0.3643946484E+00      0.6709797397E+00
          0                 2           2             7   13     1      -0.2281336500E-02       7   13    1        -0.1265677627E+00      0.1403567951E+00
          0                 3           2             4    7     1      -0.6969404721E-01       5    8    1        -0.3743161406E+01      0.9209244787E+01
          0                 4           2             4    7     1       0.7255226945E-01       5    6    1         0.4005500267E+01      0.9811464414E+01
          0                 5           2             4    7     1      -0.2888155812E-02       4    6    1        -0.1658952597E+00      0.4022423896E+00
          0                 6           1             4    7     1       0.3563851304E-04       4    6    1         0.2104290147E-02      0.5101857441E-02

    ------------------------------------------------
       NWT REQUIRED            6 OUTER ITERATIONS 
       AND A TOTAL OF         11 INNER ITERATIONS.
    ------------------------------------------------

 NO OUTPUT CONTROL FOR STRESS PERIOD   19   TIME STEP   13
 
 SOLVING FOR HEAD 
                                                   Max.-Head-Change                         Max.-Flux-Residual
  Residual-Control   Outer-Iter.   Inner-Iter.     Column Row Layer    Maximum-Head-Change  Column Row Layer    Maximum-Flux-Residual          L2-NORM 
          0                 1           2             4   13     1       0.6521593260E-02       4   13    1         0.3759984758E+00      0.6886079199E+00
          0                 2           2             7   13     1      -0.2282317668E-02       7   13    1        -0.1266203523E+00      0.1411391433E+00
          0                 3           2             4    7     1      -0.6969420560E-01       5    8    1        -0.3743170348E+01      0.9209318592E+01
          0                 4           2             4    7     1       0.7255240967E-01       5    6    1         0.4005508022E+01      0.9811486100E+01
          0                 5           2             4    7     1      -0.2888162870E-02       4    6    1        -0.1659020637E+00      0.4022458666E+00
          0                 6           1             4    7     1       0.3563859974E-04       4    6    1         0.2104378199E-02      0.5101898598E-02

    ------------------------------------------------
       NWT REQUIRED            6 OUTER ITERATIONS 
       AND A TOTAL OF         11 INNER ITERATIONS.
    ------------------------------------------------

 NO OUTPUT CONTROL FOR STRESS PERIOD   19   TIME STEP   14
 
 SOLVING FOR HEAD 
                                                   Max.-Head-Change                         Max.-Flux-Residual
  Residual-Control   Outer-Iter.   Inner-Iter.     Column Row Layer    Maximum-Head-Change  Column Row Layer    Maximum-Flux-Residual          L2-NORM 
          0                 1           2             4   13     1       0.6704240810E-02       4   13    1         0.3865126868E+00      0.7049764201E+00
          0                 2           2             7   13     1      -0.2283321319E-02       7   13    1        -0.1266742759E+00      0.1418837151E+00
          0                 3           2             4    7     1      -0.6969437018E-01       5    8    1        -0.3743179592E+01      0.9209389564E+01
          0                 4           2             4    7     1       0.7255255458E-01       5    6    1         0.4005516037E+01      0.9811508379E+01
          0                 5           2             4    7     1      -0.2888170095E-02       4    6    1        -0.1659087884E+00      0.4022493495E+00
          0                 6           1             4    7     1       0.3563868936E-04       4    6    1         0.2104465238E-02      0.5101953784E-02

    ------------------------------------------------
       NWT REQUIRED            6 OUTER ITERATIONS 
       AND A TOTAL OF         11 INNER ITERATIONS.
    ------------------------------------------------

 NO OUTPUT CONTROL FOR STRESS PERIOD   19   TIME STEP   15
 
 SOLVING FOR HEAD 
                                                   Max.-Head-Change                         Max.-Flux-Residual
  Residual-Control   Outer-Iter.   Inner-Iter.     Column Row Layer    Maximum-Head-Change  Column Row Layer    Maximum-Flux-Residual          L2-NORM 
          0                 1           2             4   13     1       0.6869753929E-02       4   13    1         0.3960358821E+00      0.7201749834E+00
          0                 2           2             7   13     1      -0.2284380163E-02       7   13    1        -0.1267313315E+00      0.1425938843E+00
          0                 3           2             4    7     1      -0.6969453457E-01       5    8    1        -0.3743188669E+01      0.9209456768E+01
          0                 4           2             4    7     1       0.7255269946E-01       5    6    1         0.4005524041E+01      0.9811530580E+01
          0                 5           2             4    7     1      -0.2888177300E-02       4    6    1        -0.1659154331E+00      0.4022527745E+00
          0                 6           1             4    7     1       0.3563877785E-04       4    6    1         0.2104551235E-02      0.5101996841E-02

    ------------------------------------------------
       NWT REQUIRED            6 OUTER ITERATIONS 
       AND A TOTAL OF         11 INNER ITERATIONS.
    ------------------------------------------------

 NO OUTPUT CONTROL FOR STRESS PERIOD   19   TIME STEP   16
 
 SOLVING FOR HEAD 
                                                   Max.-Head-Change                         Max.-Flux-Residual
  Residual-Control   Outer-Iter.   Inner-Iter.     Column Row Layer    Maximum-Head-Change  Column Row Layer    Maximum-Flux-Residual          L2-NORM 
          0                 1           2             4   13     1       0.7019923407E-02       4   13    1         0.4046717251E+00      0.7342679438E+00
          0                 2           2             7   13     1      -0.2285468733E-02       7   13    1        -0.1267901133E+00      0.1432676250E+00
          0                 3           2             4    7     1      -0.6969469438E-01       5    8    1        -0.3743197461E+01      0.9209520254E+01
          0                 4           2             4    7     1       0.7255283970E-01       5    6    1         0.4005531795E+01      0.9811552142E+01
          0                 5           2             4    7     1      -0.2888184301E-02       4    6    1        -0.1659219802E+00      0.4022562101E+00
          0                 6           1             4    7     1       0.3563886432E-04       4    6    1         0.2104635952E-02      0.5102089481E-02

    ------------------------------------------------
       NWT REQUIRED            6 OUTER ITERATIONS 
       AND A TOTAL OF         11 INNER ITERATIONS.
    ------------------------------------------------

 NO OUTPUT CONTROL FOR STRESS PERIOD   19   TIME STEP   17
 
 SOLVING FOR HEAD 
                                                   Max.-Head-Change                         Max.-Flux-Residual
  Residual-Control   Outer-Iter.   Inner-Iter.     Column Row Layer    Maximum-Head-Change  Column Row Layer    Maximum-Flux-Residual          L2-NORM 
          0                 1           2             4   13     1       0.7156194045E-02       4   13    1         0.4125042324E+00      0.7473374865E+00
          0                 2           2             7   13     1      -0.2286566937E-02       7   13    1        -0.1268494894E+00      0.1439044966E+00
          0                 3           2             4    7     1      -0.6969485661E-01       5    8    1        -0.3743206560E+01      0.9209581404E+01
          0                 4           2             4    7     1       0.7255298446E-01       5    6    1         0.4005539793E+01      0.9811574265E+01
          0                 5           2             4    7     1      -0.2888191466E-02       4    6    1        -0.1659284675E+00      0.4022595395E+00
          0                 6           1             4    7     1       0.3563895304E-04       4    6    1         0.2104719919E-02      0.5102083856E-02

    ------------------------------------------------
       NWT REQUIRED            6 OUTER ITERATIONS 
       AND A TOTAL OF         11 INNER ITERATIONS.
    ------------------------------------------------

 NO OUTPUT CONTROL FOR STRESS PERIOD   19   TIME STEP   18
 
 SOLVING FOR HEAD 
                                                   Max.-Head-Change                         Max.-Flux-Residual
  Residual-Control   Outer-Iter.   Inner-Iter.     Column Row Layer    Maximum-Head-Change  Column Row Layer    Maximum-Flux-Residual          L2-NORM 
          0                 1           2             4   13     1       0.7279942125E-02       4   13    1         0.4196131432E+00      0.7594555708E+00
          0                 2           2             7   13     1      -0.2287711584E-02       7   13    1        -0.1269114982E+00      0.1445097776E+00
          0                 3           2             4    7     1      -0.6969501168E-01       5    8    1        -0.3743215019E+01      0.9209638357E+01
          0                 4           2             4    7     1       0.7255312004E-01       5    6    1         0.4005547288E+01      0.9811595094E+01
          0                 5           2             4    7     1      -0.2888198247E-02       4    6    1        -0.1659348571E+00      0.4022628359E+00
          0                 6           1             4    7     1       0.3563903638E-04       4    6    1         0.2104802596E-02      0.5102133351E-02

    ------------------------------------------------
       NWT REQUIRED            6 OUTER ITERATIONS 
       AND A TOTAL OF         11 INNER ITERATIONS.
    ------------------------------------------------

 NO OUTPUT CONTROL FOR STRESS PERIOD   19   TIME STEP   19
 
 SOLVING FOR HEAD 
                                                   Max.-Head-Change                         Max.-Flux-Residual
  Residual-Control   Outer-Iter.   Inner-Iter.     Column Row Layer    Maximum-Head-Change  Column Row Layer    Maximum-Flux-Residual          L2-NORM 
          0                 1           2             4   13     1       0.7392292132E-02       4   13    1         0.4260635844E+00      0.7706875138E+00
          0                 2           2             7   13     1      -0.2288877111E-02       7   13    1        -0.1269747265E+00      0.1450808279E+00
          0                 3           2             4    7     1      -0.6969517100E-01       5    8    1        -0.3743223787E+01      0.9209693452E+01
          0                 4           2             4    7     1       0.7255326022E-01       5    6    1         0.4005555026E+01      0.9811616501E+01
          0                 5           2             4    7     1      -0.2888205193E-02       4    6    1        -0.1659411734E+00      0.4022661176E+00
          0                 6           1             4    7     1       0.3563912263E-04       4    6    1         0.2104884347E-02      0.5102184379E-02

    ------------------------------------------------
       NWT REQUIRED            6 OUTER ITERATIONS 
       AND A TOTAL OF         11 INNER ITERATIONS.
    ------------------------------------------------

 NO OUTPUT CONTROL FOR STRESS PERIOD   19   TIME STEP   20
 
 SOLVING FOR HEAD 
                                                   Max.-Head-Change                         Max.-Flux-Residual
  Residual-Control   Outer-Iter.   Inner-Iter.     Column Row Layer    Maximum-Head-Change  Column Row Layer    Maximum-Flux-Residual          L2-NORM 
          0                 1           2             4   13     1       0.7494472764E-02       4   13    1         0.4319269241E+00      0.7810998377E+00
          0                 2           2             7   13     1      -0.2290041377E-02       7   13    1        -0.1270379443E+00      0.1456189233E+00
          0                 3           2             4    7     1      -0.6969532573E-01       5    8    1        -0.3743232159E+01      0.9209745636E+01
          0                 4           2             4    7     1       0.7255339576E-01       5    6    1         0.4005562516E+01      0.9811637239E+01
          0                 5           2             4    7     1      -0.2888211936E-02       4    6    1        -0.1659473965E+00      0.4022693277E+00
          0                 6           1             4    7     1       0.3563920597E-04       4    6    1         0.2104964887E-02      0.5102222164E-02

    ------------------------------------------------
       NWT REQUIRED            6 OUTER ITERATIONS 
       AND A TOTAL OF         11 INNER ITERATIONS.
    ------------------------------------------------

 NO OUTPUT CONTROL FOR STRESS PERIOD   19   TIME STEP   21
 
 SOLVING FOR HEAD 
                                                   Max.-Head-Change                         Max.-Flux-Residual
  Residual-Control   Outer-Iter.   Inner-Iter.     Column Row Layer    Maximum-Head-Change  Column Row Layer    Maximum-Flux-Residual          L2-NORM 
          0                 1           2             4   13     1       0.7587488133E-02       4   13    1         0.4372611906E+00      0.7907561268E+00
          0                 2           2             7   13     1      -0.2291244256E-02       7   13    1        -0.1271033599E+00      0.1461278249E+00
          0                 3           2             4    7     1      -0.6969548026E-01       5    8    1        -0.3743240604E+01      0.9209795734E+01
          0                 4           2             4    7     1       0.7255353127E-01       5    6    1         0.4005570003E+01      0.9811657951E+01
          0                 5           2             4    7     1      -0.2888218658E-02       4    6    1        -0.1659535384E+00      0.4022725293E+00
          0                 6           1             4    7     1       0.3563928842E-04       4    6    1         0.2105044357E-02      0.5102266799E-02

    ------------------------------------------------
       NWT REQUIRED            6 OUTER ITERATIONS 
       AND A TOTAL OF         11 INNER ITERATIONS.
    ------------------------------------------------

 NO OUTPUT CONTROL FOR STRESS PERIOD   19   TIME STEP   22
 
 SOLVING FOR HEAD 
                                                   Max.-Head-Change                         Max.-Flux-Residual
  Residual-Control   Outer-Iter.   Inner-Iter.     Column Row Layer    Maximum-Head-Change  Column Row Layer    Maximum-Flux-Residual          L2-NORM 
          0                 1           2             4   13     1       0.7672118989E-02       4   13    1         0.4421117095E+00      0.7997144059E+00
          0                 2           2             7   13     1      -0.2292457630E-02       7   13    1        -0.1271693974E+00      0.1466098765E+00
          0                 3           2             4    7     1      -0.6969563905E-01       5    8    1        -0.3743249131E+01      0.9209844005E+01
          0                 4           2             4    7     1       0.7255367138E-01       5    6    1         0.4005577735E+01      0.9811679223E+01
          0                 5           2             4    7     1      -0.2888225549E-02       4    6    1        -0.1659596263E+00      0.4022757065E+00
          0                 6           1             4    7     1       0.3563937332E-04       4    6    1         0.2105123157E-02      0.5102308285E-02

    ------------------------------------------------
       NWT REQUIRED            6 OUTER ITERATIONS 
       AND A TOTAL OF         11 INNER ITERATIONS.
    ------------------------------------------------

 NO OUTPUT CONTROL FOR STRESS PERIOD   19   TIME STEP   23
 
 SOLVING FOR HEAD 
                                                   Max.-Head-Change                         Max.-Flux-Residual
  Residual-Control   Outer-Iter.   Inner-Iter.     Column Row Layer    Maximum-Head-Change  Column Row Layer    Maximum-Flux-Residual          L2-NORM 
          0                 1           2             4   13     1       0.7749199492E-02       4   13    1         0.4465268317E+00      0.8080237106E+00
          0                 2           2             7   13     1      -0.2293683811E-02       7   13    1        -0.1272361897E+00      0.1470633105E+00
          0                 3           2             4    7     1      -0.6969579318E-01       5    8    1        -0.3743257499E+01      0.9209890135E+01
          0                 4           2             4    7     1       0.7255380685E-01       5    6    1         0.4005585218E+01      0.9811699850E+01
          0                 5           2             4    7     1      -0.2888232238E-02       4    6    1        -0.1659656248E+00      0.4022788286E+00
          0                 6           1             4    7     1       0.3563945599E-04       4    6    1         0.2105200756E-02      0.5102347115E-02

    ------------------------------------------------
       NWT REQUIRED            6 OUTER ITERATIONS 
       AND A TOTAL OF         11 INNER ITERATIONS.
    ------------------------------------------------

 NO OUTPUT CONTROL FOR STRESS PERIOD   19   TIME STEP   24
 
 SOLVING FOR HEAD 
                                                   Max.-Head-Change                         Max.-Flux-Residual
  Residual-Control   Outer-Iter.   Inner-Iter.     Column Row Layer    Maximum-Head-Change  Column Row Layer    Maximum-Flux-Residual          L2-NORM 
          0                 1           2             4   13     1       0.7819442279E-02       4   13    1         0.4505476159E+00      0.8157299495E+00
          0                 2           2             7   13     1      -0.2294902495E-02       7   13    1        -0.1273026247E+00      0.1474886169E+00
          0                 3           2             4    7     1      -0.6969594713E-01       5    8    1        -0.3743265713E+01      0.9209934614E+01
          0                 4           2             4    7     1       0.7255394230E-01       5    6    1         0.4005592699E+01      0.9811720434E+01
          0                 5           2             4    7     1      -0.2888238908E-02       4    6    1        -0.1659715457E+00      0.4022819260E+00
          0                 6           1             4    7     1       0.3563953844E-04       4    6    1         0.2105277410E-02      0.5102390913E-02

    ------------------------------------------------
       NWT REQUIRED            6 OUTER ITERATIONS 
       AND A TOTAL OF         11 INNER ITERATIONS.
    ------------------------------------------------

 NO OUTPUT CONTROL FOR STRESS PERIOD   19   TIME STEP   25
 
 SOLVING FOR HEAD 
                                                   Max.-Head-Change                         Max.-Flux-Residual
  Residual-Control   Outer-Iter.   Inner-Iter.     Column Row Layer    Maximum-Head-Change  Column Row Layer    Maximum-Flux-Residual          L2-NORM 
          0                 1           2             4   13     1       0.7883638929E-02       4   13    1         0.4542201561E+00      0.8228876532E+00
          0                 2           2             7   13     1      -0.2296146446E-02       7   13    1        -0.1273704872E+00      0.1478925718E+00
          0                 3           2             4    7     1      -0.6969609643E-01       5    8    1        -0.3743273768E+01      0.9209976766E+01
          0                 4           2             4    7     1       0.7255407311E-01       5    6    1         0.4005599924E+01      0.9811740352E+01
          0                 5           2             4    7     1      -0.2888245378E-02       4    6    1        -0.1659773881E+00      0.4022849648E+00
          0                 6           1             4    7     1       0.3563961797E-04       4    6    1         0.2105352994E-02      0.5102430336E-02

    ------------------------------------------------
       NWT REQUIRED            6 OUTER ITERATIONS 
       AND A TOTAL OF         11 INNER ITERATIONS.
    ------------------------------------------------

 NO OUTPUT CONTROL FOR STRESS PERIOD   19   TIME STEP   26
 
 SOLVING FOR HEAD 
                                                   Max.-Head-Change                         Max.-Flux-Residual
  Residual-Control   Outer-Iter.   Inner-Iter.     Column Row Layer    Maximum-Head-Change  Column Row Layer    Maximum-Flux-Residual          L2-NORM 
          0                 1           2             4   13     1       0.7942130535E-02       4   13    1         0.4575639525E+00      0.8295303870E+00
          0                 2           2             7   13     1      -0.2297399037E-02       7   13    1        -0.1274388648E+00      0.1482747930E+00
          0                 3           2             4    7     1      -0.6969624554E-01       5    8    1        -0.3743281677E+01      0.9210017047E+01
          0                 4           2             4    7     1       0.7255420389E-01       5    6    1         0.4005607138E+01      0.9811760236E+01
          0                 5           2             4    7     1      -0.2888251833E-02       4    6    1        -0.1659831710E+00      0.4022879638E+00
          0                 6           1             4    7     1       0.3563969795E-04       4    6    1         0.2105427842E-02      0.5102459429E-02

    ------------------------------------------------
       NWT REQUIRED            6 OUTER ITERATIONS 
       AND A TOTAL OF         11 INNER ITERATIONS.
    ------------------------------------------------

 NO OUTPUT CONTROL FOR STRESS PERIOD   19   TIME STEP   27
 
 SOLVING FOR HEAD 
                                                   Max.-Head-Change                         Max.-Flux-Residual
  Residual-Control   Outer-Iter.   Inner-Iter.     Column Row Layer    Maximum-Head-Change  Column Row Layer    Maximum-Flux-Residual          L2-NORM 
          0                 1           2             4   13     1       0.7995595270E-02       4   13    1         0.4606182087E+00      0.8356976967E+00
          0                 2           2             7   13     1      -0.2298652136E-02       7   13    1        -0.1275073224E+00      0.1486345644E+00
          0                 3           2             4    7     1      -0.6969639446E-01       5    8    1        -0.3743289668E+01      0.9210056179E+01
          0                 4           2             4    7     1       0.7255433466E-01       5    6    1         0.4005614359E+01      0.9811780090E+01
          0                 5           2             4    7     1      -0.2888258270E-02       4    6    1        -0.1659888794E+00      0.4022909627E+00
          0                 6           1             4    7     1       0.3563977748E-04       4    6    1         0.2105501718E-02      0.5102508462E-02

    ------------------------------------------------
       NWT REQUIRED            6 OUTER ITERATIONS 
       AND A TOTAL OF         11 INNER ITERATIONS.
    ------------------------------------------------

 NO OUTPUT CONTROL FOR STRESS PERIOD   19   TIME STEP   28
 
 SOLVING FOR HEAD 
                                                   Max.-Head-Change                         Max.-Flux-Residual
  Residual-Control   Outer-Iter.   Inner-Iter.     Column Row Layer    Maximum-Head-Change  Column Row Layer    Maximum-Flux-Residual          L2-NORM 
          0                 1           2             4   13     1       0.7536413377E-02       4   13    1         0.4341239911E+00      0.7911179922E+00
          0                 2           2             7   13     1      -0.2172811420E-02       7   13    1        -0.1205290829E+00      0.1405889772E+00
          0                 3           2             4    7     1      -0.6969654321E-01       5    8    1        -0.3743297625E+01      0.9209969880E+01
          0                 4           2             4    7     1       0.7255446540E-01       5    6    1         0.4005621579E+01      0.9811810622E+01
          0                 5           2             4    7     1      -0.2888264690E-02       4    6    1        -0.1659945144E+00      0.4022951037E+00
          0                 6           1             4    7     1       0.3563985634E-04       4    6    1         0.2105574626E-02      0.5102696921E-02

    ------------------------------------------------
       NWT REQUIRED            6 OUTER ITERATIONS 
       AND A TOTAL OF         11 INNER ITERATIONS.
    ------------------------------------------------

 NO OUTPUT CONTROL FOR STRESS PERIOD   19   TIME STEP   29
 
 SOLVING FOR HEAD 
                                                   Max.-Head-Change                         Max.-Flux-Residual
  Residual-Control   Outer-Iter.   Inner-Iter.     Column Row Layer    Maximum-Head-Change  Column Row Layer    Maximum-Flux-Residual          L2-NORM 
          0                 1           2             4   13     1       0.6990238959E-02       4   13    1         0.4026358319E+00      0.7372687873E+00
          0                 2           2             7   13     1      -0.2013484055E-02       7   13    1        -0.1116941865E+00      0.1305321061E+00
          0                 3           2             4    7     1      -0.6969669372E-01       5    8    1        -0.3743305626E+01      0.9209857620E+01
          0                 4           2             4    7     1       0.7255459622E-01       5    6    1         0.4005628810E+01      0.9811854196E+01
          0                 5           2             4    7     1      -0.2888271098E-02       4    6    1        -0.1660000838E+00      0.4023007468E+00
          0                 6           1             4    7     1       0.3563993564E-04       4    6    1         0.2105646690E-02      0.5103085653E-02

    ------------------------------------------------
       NWT REQUIRED            6 OUTER ITERATIONS 
       AND A TOTAL OF         11 INNER ITERATIONS.
    ------------------------------------------------

 NO OUTPUT CONTROL FOR STRESS PERIOD   19   TIME STEP   30



 STREAM LISTING     PERIOD     19   STEP       30

 LAYER ROW COL. STREAM  RCH.  FLOW INTO     FLOW TO   FLOW OUT OF   OVRLND.     DIRECT     STREAM       STREAM     STREAM     STREAM   STREAMBED  STREAMBED
                SEG.NO.  NO.  STRM. RCH.    AQUIFER    STRM. RCH.    RUNOFF     PRECIP       ET          HEAD       DEPTH      WIDTH   CONDCTNC.   GRADIENT

   1    1    1     1     1    4.0501E+01  3.0566E-01   4.0195E+01  0.000E+00  0.000E+00  0.000E+00  1.09438E+03  1.335E+00  1.567E+01  7.051E-02  1.445E+00
   1    2    2     1     2    4.0195E+01  4.7341E-01   3.9722E+01  0.000E+00  0.000E+00  0.000E+00  1.08939E+03  1.332E+00  1.561E+01  1.093E-01  1.444E+00
   1    3    3     1     3    3.9722E+01  4.0378E-01   3.9318E+01  0.000E+00  0.000E+00  0.000E+00  1.08375E+03  1.329E+00  1.555E+01  9.328E-02  1.443E+00
   1    3    4     1     4    3.9318E+01  3.7185E-01   3.8946E+01  0.000E+00  0.000E+00  0.000E+00  1.07873E+03  1.326E+00  1.549E+01  8.596E-02  1.442E+00
   1    4    5     2     1    3.6946E+01  3.5272E-01   3.6593E+01  0.000E+00  0.000E+00  0.000E+00  1.07346E+03  1.522E+00  1.200E+01  7.800E-02  1.507E+00
   1    5    6     2     2    3.6593E+01  2.7086E-01   3.6322E+01  0.000E+00  0.000E+00  0.000E+00  1.06802E+03  1.514E+00  1.200E+01  6.000E-02  1.505E+00
   1    6    6     2     3    3.6322E+01  2.7045E-01   3.6052E+01  0.000E+00  0.000E+00  0.000E+00  1.06330E+03  1.508E+00  1.200E+01  6.000E-02  1.503E+00
   1    7    6     2     4    3.6052E+01  2.7005E-01   3.5782E+01  0.000E+00  0.000E+00  0.000E+00  1.05858E+03  1.501E+00  1.200E+01  6.000E-02  1.500E+00
   1    8    6     2     5    3.5782E+01  2.6964E-01   3.5512E+01  0.000E+00  0.000E+00  0.000E+00  1.05385E+03  1.494E+00  1.200E+01  6.000E-02  1.498E+00
   1    3    5     3     1    2.0000E+00  2.8252E-01   1.7175E+00  0.000E+00  0.000E+00  0.000E+00  1.07555E+03  1.909E+00  9.636E+00  7.227E-02  1.955E+00
   1    3    6     3     2    1.7175E+00  2.4905E-01   1.4684E+00  0.000E+00  0.000E+00  0.000E+00  1.07264E+03  1.727E+00  8.909E+00  6.682E-02  1.864E+00
   1    3    7     3     3    1.4684E+00  1.9718E-01   1.2712E+00  0.000E+00  0.000E+00  0.000E+00  1.06987E+03  1.555E+00  8.218E+00  5.547E-02  1.777E+00
   1    4    8     3     4    1.2712E+00  2.2567E-01   1.0456E+00  0.000E+00  0.000E+00  0.000E+00  1.06682E+03  1.364E+00  7.455E+00  6.709E-02  1.682E+00
   1    5    8     3     5    1.0456E+00  1.5790E-01   8.8768E-01  0.000E+00  0.000E+00  0.000E+00  1.06362E+03  1.164E+00  6.655E+00  4.991E-02  1.582E+00
   1    6    8     3     6    8.8768E-01  5.5980E-02   8.3170E-01  0.000E+00  0.000E+00  0.000E+00  1.06158E+03  1.036E+00  6.145E+00  1.844E-02  1.518E+00
   1    5   10     4     1    1.0000E+01  9.0919E-02   9.9091E+00  0.000E+00  0.000E+00  0.000E+00  1.07836E+03  6.368E-01  1.000E+01  2.500E-02  1.212E+00
   1    5    9     4     2    9.9091E+00  1.8158E-01   9.7275E+00  0.000E+00  0.000E+00  0.000E+00  1.07154E+03  6.315E-01  1.000E+01  5.000E-02  1.211E+00
   1    6    8     4     3    9.7275E+00  1.2689E-01   9.6006E+00  0.000E+00  0.000E+00  0.000E+00  1.06381E+03  6.256E-01  1.000E+01  3.500E-02  1.209E+00
   1    6    8     5     1    1.0432E+01  2.2686E-01   1.0205E+01  0.000E+00  0.000E+00  0.000E+00  1.05868E+03  6.790E-01  1.542E+01  6.166E-02  1.226E+00
   1    7    7     5     2    1.0205E+01  2.7894E-01   9.9265E+00  0.000E+00  0.000E+00  0.000E+00  1.05417E+03  6.732E-01  1.519E+01  7.594E-02  1.224E+00
   1    8    7     5     3    9.9265E+00  1.9221E-01   9.7343E+00  0.000E+00  0.000E+00  0.000E+00  1.04992E+03  6.676E-01  1.497E+01  5.241E-02  1.223E+00
   1    8    6     5     4    9.7343E+00  1.3577E-01   9.5985E+00  0.000E+00  0.000E+00  0.000E+00  1.04691E+03  6.637E-01  1.482E+01  3.706E-02  1.221E+00
   1    9    6     6     1    2.2649E+01  2.4882E-01   2.2401E+01  0.000E+00  0.000E+00  0.000E+00  1.04387E+03  1.147E+00  1.200E+01  6.000E-02  1.382E+00
   1   10    7     6     2    2.2401E+01  2.4836E-01   2.2152E+01  0.000E+00  0.000E+00  0.000E+00  1.03932E+03  1.139E+00  1.200E+01  6.000E-02  1.380E+00
   1   11    7     6     3    2.2152E+01  2.4791E-01   2.1904E+01  0.000E+00  0.000E+00  0.000E+00  1.03477E+03  1.132E+00  1.200E+01  6.000E-02  1.377E+00
   1   12    7     6     4    2.1904E+01  2.4745E-01   2.1657E+01  0.000E+00  0.000E+00  0.000E+00  1.03022E+03  1.124E+00  1.200E+01  6.000E-02  1.375E+00
   1   13    7     6     5    2.1657E+01 -2.8966E-02   2.1686E+01  0.000E+00  0.000E+00  0.000E+00  1.02703E+03  1.121E+00  1.200E+01  2.400E-01 -4.023E-02
   1   14    9     7     1    1.5000E+02  1.3361E+00   1.4866E+02  0.000E+00  0.000E+00  0.000E+00  1.03987E+03  2.288E+00  5.529E+01  5.593E-01  7.963E-01
   1   13    8     7     2    1.4866E+02  1.8175E+00   1.4685E+02  0.000E+00  0.000E+00  0.000E+00  1.03478E+03  2.279E+00  5.526E+01  6.148E-01  9.854E-01
   1   13    7     7     3    1.4685E+02  1.4182E+00   1.4543E+02  0.000E+00  0.000E+00  0.000E+00  1.02969E+03  2.271E+00  5.522E+01  5.585E-01  8.465E-01
   1   13    6     8     1    1.6711E+02  8.4549E-01   1.6627E+02  0.000E+00  0.000E+00  0.000E+00  1.02481E+03  2.931E+00  4.249E+01  4.330E-01  6.509E-01
   1   13    5     8     2    1.6627E+02  1.0239E-01   1.6617E+02  0.000E+00  0.000E+00  0.000E+00  1.01855E+03  2.927E+00  4.245E+01  4.326E-01  7.890E-02
   1   13    4     8     3    1.6617E+02 -2.7289E+00   1.6889E+02  0.000E+00  0.000E+00  0.000E+00  1.01231E+03  2.936E+00  4.257E+01  4.338E+00 -2.097E-01
   1   13    3     8     4    1.6889E+02 -3.8224E+00   1.7272E+02  0.000E+00  0.000E+00  0.000E+00  1.00608E+03  2.957E+00  4.288E+01  4.370E+00 -2.916E-01
   1   13    2     8     5    1.7272E+02 -2.6920E+00   1.7541E+02  0.000E+00  0.000E+00  0.000E+00  9.99853E+02  2.978E+00  4.319E+01  4.401E+00 -2.039E-01
   1   13    1     8     6    1.7541E+02 -2.0723E+00   1.7748E+02  0.000E+00  0.000E+00  0.000E+00  9.94869E+02  2.994E+00  4.341E+01  2.654E+00 -2.603E-01
   1    8    6     9     1    2.2461E+01  0.0000E+00   2.2461E+01  0.000E+00  0.000E+00  0.000E+00  1.08243E+03  3.682E+00  4.000E+00  0.000E+00  2.227E+00
   1    8    5     9     2    2.2461E+01  0.0000E+00   2.2461E+01  0.000E+00  0.000E+00  0.000E+00  1.08193E+03  3.682E+00  4.000E+00  0.000E+00  2.227E+00





UNSATURATED ZONE PACKAGE VOLUMETRIC BUDGET FOR  TIME STEP    30 STRESS PERIOD   19
  ------------------------------------------------------------------------------



     CUMULATIVE VOLUMES      L**3       RATES FOR THIS TIME STEP      L**3/T
     ------------------                 ------------------------

           IN:                                      IN:
           ---                                      ---
        INFILTRATION =   536273574.1800          INFILTRATION =          23.3093

          OUT:                                     OUT:
          ----                                     ----
              UZF ET =   531823480.5157                UZF ET =          23.3175
        UZF RECHARGE =       73224.0000          UZF RECHARGE =       0.0000E+00

            IN - OUT =     4376869.6642              IN - OUT =      -8.1654E-03

          STORAGE:                                 STORAGE:
          --------                                 --------
      STORAGE CHANGE =     4377071.2333        STORAGE CHANGE =      -8.1663E-03

 PERCENT DISCREPANCY IS DIFFERENCE BETWEEN IN-OUT MINUS CHANGE IN STORAGE
 DIVIDED BY THE AVERAGE OF IN AND OUT TIMES 100

 PERCENT DISCREPANCY =          -0.00     PERCENT DISCREPANCY =           0.00






1
  VOLUMETRIC BUDGET FOR AGRICULTURAL FIELDS AT  END OF TIME STEP   30, STRESS PERIOD  19
  ------------------------------------------------------------------------------

     CUMULATIVE VOLUMES      L**3       RATES FOR THIS TIME STEP      L**3/T
     ------------------                 ------------------------

           IN:                                      IN:
           ---                                      ---
               AG WELLS  =    49152464.0000                 AG WELLS  =           0.0000
      DIVERSION SEGMENTS =   446976000.0000        DIVERSION SEGMENTS =          22.4614
       IRRIGATION PONDS  =           0.0000         IRRIGATION PONDS  =           0.0000
           GW IRRIGATION =           0.0000             GW IRRIGATION =           0.0000
           SW IRRIGATION =           0.0000             SW IRRIGATION =           0.0000
        SYSTEM LOSSES GW =           0.0000          SYSTEM LOSSES GW =           0.0000
        SYSTEM LOSSES SW =           0.0000          SYSTEM LOSSES SW =           0.0000

                TOTAL IN =   496128448.0000                  TOTAL IN =          22.4614

          OUT:                                     OUT:
          ----                                     ----
               AG WELLS  =           0.0000                 AG WELLS  =           0.0000
      DIVERSION SEGMENTS =           0.0000        DIVERSION SEGMENTS =           0.0000
       IRRIGATION PONDS  =           0.0000         IRRIGATION PONDS  =           0.0000
           GW IRRIGATION =    49152464.0000             GW IRRIGATION =           0.0000
           SW IRRIGATION =   446984576.0000             SW IRRIGATION =          22.4618
        SYSTEM LOSSES GW =           0.0000          SYSTEM LOSSES GW =           0.0000
        SYSTEM LOSSES SW =           0.0000          SYSTEM LOSSES SW =           0.0000

               TOTAL OUT =   496137024.0000                 TOTAL OUT =          22.4618

                IN - OUT =       -8576.0000                  IN - OUT =      -4.4823E-04

     PERCENT DISCREPANCY =          -0.00         PERCENT DISCREPANCY =          -0.00



1
  VOLUMETRIC BUDGET FOR ENTIRE MODEL AT END OF TIME STEP   30, STRESS PERIOD  19
  ------------------------------------------------------------------------------

     CUMULATIVE VOLUMES      L**3       RATES FOR THIS TIME STEP      L**3/T
     ------------------                 ------------------------

           IN:                                      IN:
           ---                                      ---
             STORAGE     =    99795704.0000               STORAGE     =           0.9373
       CONSTANT HEAD     =           0.0000         CONSTANT HEAD     =           0.0000
     HEAD DEP BOUNDS     =    13552221.0000       HEAD DEP BOUNDS     =           0.2858
      STREAM LEAKAGE     =   570110336.0000        STREAM LEAKAGE     =          11.9021
        UZF RECHARGE     =       73223.9531          UZF RECHARGE     =           0.0000
               GW ET     =           0.0000                 GW ET     =           0.0000
     SURFACE LEAKAGE     =           0.0000       SURFACE LEAKAGE     =           0.0000
           AG WELLS      =           0.0000             AG WELLS      =           0.0000

                TOTAL IN =   683531456.0000                  TOTAL IN =          13.1252

          OUT:                                     OUT:
          ----                                     ----
             STORAGE     =   105496808.0000               STORAGE     =           1.4897
       CONSTANT HEAD     =           0.0000         CONSTANT HEAD     =           0.0000
     HEAD DEP BOUNDS     =    13813570.0000       HEAD DEP BOUNDS     =           0.2907
      STREAM LEAKAGE     =   512746272.0000        STREAM LEAKAGE     =          11.3446
        UZF RECHARGE     =           0.0000          UZF RECHARGE     =           0.0000
               GW ET     =     2326724.7500                 GW ET     =           0.0000
     SURFACE LEAKAGE     =           0.0000       SURFACE LEAKAGE     =           0.0000
           AG WELLS      =    49152464.0000             AG WELLS      =           0.0000

               TOTAL OUT =   683535808.0000                 TOTAL OUT =          13.1250

                IN - OUT =       -4352.0000                  IN - OUT =       1.9073E-04

     PERCENT DISCREPANCY =          -0.00         PERCENT DISCREPANCY =           0.00






         TIME SUMMARY AT END OF TIME STEP   30 IN STRESS PERIOD   19
                    SECONDS     MINUTES      HOURS       DAYS        YEARS
                    -----------------------------------------------------------
   TIME STEP LENGTH  87667.      1461.1      24.352      1.0147     2.77799E-03
 STRESS PERIOD TIME 2.63000E+06  43833.      730.56      30.440     8.33397E-02
         TOTAL TIME 4.74265E+07 7.90442E+05  13174.      548.92      1.5029    
1
1
                            STRESS PERIOD NO.   20, LENGTH =   2630000.    
                            -----------------------------------------------

                              NUMBER OF TIME STEPS =    30

                               MULTIPLIER FOR DELT =     1.000

                            INITIAL TIME STEP SIZE =   87666.66    

 REUSING NON-PARAMETER GHB CELLS FROM LAST STRESS PERIOD

      2 GHB CELLS

 REUSING STREAM SEGMENT DATA FROM LAST STRESS PERIOD



            AREAL INFILTRATION RATE
 READING ON UNIT   19 WITH FORMAT: (FREE)              

            1           2           3           4           5           6           7           8           9          10
 ........................................................................................................................
   1   1.0000E-10  2.0000E-10   0.000       0.000       0.000       0.000       0.000       0.000       0.000       0.000    
   2   2.0000E-10  1.0000E-10  2.0000E-10   0.000       0.000      8.0000E-10  8.0000E-10  5.0000E-10   0.000       0.000    
   3    0.000      5.0000E-10  1.0000E-10  1.0000E-10  8.0000E-10  8.0000E-10  5.0000E-10  5.0000E-10   0.000       0.000    
   4   8.0000E-10  5.0000E-10  1.0000E-10  1.0000E-10  1.0000E-10  1.0000E-10  1.0000E-10  1.0000E-10  2.0000E-10   0.000    
   5   8.0000E-10  5.0000E-10  1.0000E-10  1.0000E-10  1.0000E-10  1.0000E-10  1.0000E-10  1.0000E-10  1.0000E-10  1.0000E-10
   6   8.0000E-10  5.0000E-10  5.0000E-10  2.0000E-10  2.0000E-10  1.0000E-10  1.0000E-10  1.0000E-10  1.0000E-10  5.0000E-10
   7   8.0000E-10  5.0000E-10  5.0000E-10  2.0000E-10  2.0000E-10  1.0000E-10  1.0000E-10  2.0000E-10  2.0000E-10   0.000    
   8    0.000      5.0000E-10  5.0000E-10  2.0000E-10  2.0000E-10  1.0000E-10  1.0000E-10  2.0000E-10  5.0000E-10   0.000    
   9    0.000      5.0000E-10  5.0000E-10  2.0000E-10  2.0000E-10  1.0000E-10  1.0000E-10  2.0000E-10  5.0000E-10   0.000    
  10    0.000      5.0000E-10  5.0000E-10  2.0000E-10  2.0000E-10  1.0000E-10  1.0000E-10  2.0000E-10  5.0000E-10  8.0000E-10
  11    0.000      1.0000E-10  1.0000E-10  1.0000E-10  1.0000E-10  1.0000E-10  1.0000E-10  2.0000E-10  5.0000E-10   0.000    
  12   1.0000E-10  1.0000E-10  1.0000E-10  1.0000E-10  1.0000E-10  1.0000E-10  1.0000E-10  1.0000E-10  2.0000E-10   0.000    
  13   1.0000E-10  1.0000E-10  2.0000E-10  2.0000E-10  2.0000E-10  2.0000E-10  2.0000E-10  1.0000E-10  1.0000E-10   0.000    
  14    0.000      2.0000E-10  5.0000E-10  5.0000E-10  5.0000E-10  5.0000E-10  5.0000E-10  2.0000E-10  1.0000E-10   0.000    
  15    0.000       0.000      8.0000E-10  8.0000E-10  8.0000E-10  8.0000E-10   0.000       0.000       0.000       0.000    

                  ET RATE =  4.000000E-07

 USING ET EXTINCTION DEPTH FROM PREVIOUS STRESS PERIOD. CURRENT PERIOD IS:      20

 USING EXTINCTION WATER CONTENT FROM PREVIOUS STRESS PERIOD. CURRENT PERIOD IS:      20

 USING AIR ENTRY PRESSURE FROM PREVIOUS STRESS PERIOD. CURRENT PERIOD IS:      20

 USING ROOT PRESSURE HEAD FROM PREVIOUS STRESS PERIOD. CURRENT PERIOD IS:      20

 USING ROOT ACTIVITY FROM PREVIOUS STRESS PERIOD. CURRENT PERIOD IS:      20

 PROCESSING AG STRESS PERIOD DATA

 READING AG STRESS PERIOD DATA

 READING IRRIGATION SEGMENT

 READING IRRIGATION WELL

 READING SUPPLEMENTAL WELL

 NO IRRPOND OR REUSING IRRPOND DATA FROM LAST STRESS PERIOD

 END PROCESSING AG STRESS PERIOD DATA OPTIONS
 
 SOLVING FOR HEAD 
                                                   Max.-Head-Change                         Max.-Flux-Residual
  Residual-Control   Outer-Iter.   Inner-Iter.     Column Row Layer    Maximum-Head-Change  Column Row Layer    Maximum-Flux-Residual          L2-NORM 
          0                 1           2             2   13     1      -0.6524919456E-02       2   13    1        -0.3659787839E+00      0.7506845871E+00
          0                 2           2             4    7     1      -0.1854070240E+00       4    6    1        -0.9957924420E+01      0.2439064621E+02
          0                 3           2             4    7     1       0.1260435241E-01       5    6    1         0.6970048723E+00      0.1704993174E+01
          0                 4           2             4    7     1      -0.5015399952E-03       5    6    1        -0.2850758553E-01      0.6973469720E-01
          0                 5           1             4    7     1       0.6184204221E-05       5    6    1         0.3612789005E-03      0.8837523470E-03

    ------------------------------------------------
       NWT REQUIRED            5 OUTER ITERATIONS 
       AND A TOTAL OF          9 INNER ITERATIONS.
    ------------------------------------------------

 OUTPUT CONTROL FOR STRESS PERIOD   20   TIME STEP    1
    PRINT BUDGET
    SAVE BUDGET
    SAVE BUDGET
    SAVE HEAD FOR ALL LAYERS
 UBDSV1 SAVING "         STORAGE" ON UNIT 102 AT TIME STEP 1, STRESS PERIOD 20
 UBDSV2 SAVING "   CONSTANT HEAD" ON UNIT 102 AT TIME STEP 1, STRESS PERIOD 20
 UBDSV1 SAVING "FLOW RIGHT FACE " ON UNIT 102 AT TIME STEP 1, STRESS PERIOD 20
 UBDSV1 SAVING "FLOW FRONT FACE " ON UNIT 102 AT TIME STEP 1, STRESS PERIOD 20

  HEAD DEP BOUNDS   PERIOD   20   STEP     1
 BOUNDARY      1   LAYER   1   ROW    13   COL     1   RATE   -0.290523    
 BOUNDARY      2   LAYER   1   ROW    14   COL     9   RATE    0.285781    



 STREAM LISTING     PERIOD     20   STEP        1

 LAYER ROW COL. STREAM  RCH.  FLOW INTO     FLOW TO   FLOW OUT OF   OVRLND.     DIRECT     STREAM       STREAM     STREAM     STREAM   STREAMBED  STREAMBED
                SEG.NO.  NO.  STRM. RCH.    AQUIFER    STRM. RCH.    RUNOFF     PRECIP       ET          HEAD       DEPTH      WIDTH   CONDCTNC.   GRADIENT

   1    1    1     1     1    4.0501E+01  3.0566E-01   4.0195E+01  0.000E+00  0.000E+00  0.000E+00  1.09438E+03  1.335E+00  1.567E+01  7.051E-02  1.445E+00
   1    2    2     1     2    4.0195E+01  4.7341E-01   3.9722E+01  0.000E+00  0.000E+00  0.000E+00  1.08939E+03  1.332E+00  1.561E+01  1.093E-01  1.444E+00
   1    3    3     1     3    3.9722E+01  4.0378E-01   3.9318E+01  0.000E+00  0.000E+00  0.000E+00  1.08375E+03  1.329E+00  1.555E+01  9.328E-02  1.443E+00
   1    3    4     1     4    3.9318E+01  3.7185E-01   3.8946E+01  0.000E+00  0.000E+00  0.000E+00  1.07873E+03  1.326E+00  1.549E+01  8.596E-02  1.442E+00
   1    4    5     2     1    3.6946E+01  3.5272E-01   3.6593E+01  0.000E+00  0.000E+00  0.000E+00  1.07346E+03  1.522E+00  1.200E+01  7.800E-02  1.507E+00
   1    5    6     2     2    3.6593E+01  2.7086E-01   3.6322E+01  0.000E+00  0.000E+00  0.000E+00  1.06802E+03  1.514E+00  1.200E+01  6.000E-02  1.505E+00
   1    6    6     2     3    3.6322E+01  2.7045E-01   3.6052E+01  0.000E+00  0.000E+00  0.000E+00  1.06330E+03  1.508E+00  1.200E+01  6.000E-02  1.503E+00
   1    7    6     2     4    3.6052E+01  2.7005E-01   3.5782E+01  0.000E+00  0.000E+00  0.000E+00  1.05858E+03  1.501E+00  1.200E+01  6.000E-02  1.500E+00
   1    8    6     2     5    3.5782E+01  2.6964E-01   3.5512E+01  0.000E+00  0.000E+00  0.000E+00  1.05385E+03  1.494E+00  1.200E+01  6.000E-02  1.498E+00
   1    3    5     3     1    2.0000E+00  2.8252E-01   1.7175E+00  0.000E+00  0.000E+00  0.000E+00  1.07555E+03  1.909E+00  9.636E+00  7.227E-02  1.955E+00
   1    3    6     3     2    1.7175E+00  2.4905E-01   1.4684E+00  0.000E+00  0.000E+00  0.000E+00  1.07264E+03  1.727E+00  8.909E+00  6.682E-02  1.864E+00
   1    3    7     3     3    1.4684E+00  1.9718E-01   1.2712E+00  0.000E+00  0.000E+00  0.000E+00  1.06987E+03  1.555E+00  8.218E+00  5.547E-02  1.777E+00
   1    4    8     3     4    1.2712E+00  2.2567E-01   1.0456E+00  0.000E+00  0.000E+00  0.000E+00  1.06682E+03  1.364E+00  7.455E+00  6.709E-02  1.682E+00
   1    5    8     3     5    1.0456E+00  1.5790E-01   8.8768E-01  0.000E+00  0.000E+00  0.000E+00  1.06362E+03  1.164E+00  6.655E+00  4.991E-02  1.582E+00
   1    6    8     3     6    8.8768E-01  5.5980E-02   8.3170E-01  0.000E+00  0.000E+00  0.000E+00  1.06158E+03  1.036E+00  6.145E+00  1.844E-02  1.518E+00
   1    5   10     4     1    1.0000E+01  9.0919E-02   9.9091E+00  0.000E+00  0.000E+00  0.000E+00  1.07836E+03  6.368E-01  1.000E+01  2.500E-02  1.212E+00
   1    5    9     4     2    9.9091E+00  1.8158E-01   9.7275E+00  0.000E+00  0.000E+00  0.000E+00  1.07154E+03  6.315E-01  1.000E+01  5.000E-02  1.211E+00
   1    6    8     4     3    9.7275E+00  1.2689E-01   9.6006E+00  0.000E+00  0.000E+00  0.000E+00  1.06381E+03  6.256E-01  1.000E+01  3.500E-02  1.209E+00
   1    6    8     5     1    1.0432E+01  2.2686E-01   1.0205E+01  0.000E+00  0.000E+00  0.000E+00  1.05868E+03  6.790E-01  1.542E+01  6.166E-02  1.226E+00
   1    7    7     5     2    1.0205E+01  2.7894E-01   9.9265E+00  0.000E+00  0.000E+00  0.000E+00  1.05417E+03  6.732E-01  1.519E+01  7.594E-02  1.224E+00
   1    8    7     5     3    9.9265E+00  1.9221E-01   9.7343E+00  0.000E+00  0.000E+00  0.000E+00  1.04992E+03  6.676E-01  1.497E+01  5.241E-02  1.223E+00
   1    8    6     5     4    9.7343E+00  1.3577E-01   9.5985E+00  0.000E+00  0.000E+00  0.000E+00  1.04691E+03  6.637E-01  1.482E+01  3.706E-02  1.221E+00
   1    9    6     6     1    9.5985E+00  2.2097E-01   9.3776E+00  0.000E+00  0.000E+00  0.000E+00  1.04341E+03  6.828E-01  1.200E+01  6.000E-02  1.228E+00
   1   10    7     6     2    9.3776E+00  2.2039E-01   9.1572E+00  0.000E+00  0.000E+00  0.000E+00  1.03885E+03  6.732E-01  1.200E+01  6.000E-02  1.224E+00
   1   11    7     6     3    9.1572E+00  2.1981E-01   8.9374E+00  0.000E+00  0.000E+00  0.000E+00  1.03430E+03  6.636E-01  1.200E+01  6.000E-02  1.221E+00
   1   12    7     6     4    8.9374E+00  2.1923E-01   8.7181E+00  0.000E+00  0.000E+00  0.000E+00  1.02974E+03  6.539E-01  1.200E+01  6.000E-02  1.218E+00
   1   13    7     6     5    8.7181E+00 -1.4083E-01   8.8590E+00  0.000E+00  0.000E+00  0.000E+00  1.02656E+03  6.521E-01  1.200E+01  2.400E-01 -1.956E-01
   1   14    9     7     1    1.5000E+02  1.3361E+00   1.4866E+02  0.000E+00  0.000E+00  0.000E+00  1.03987E+03  2.288E+00  5.529E+01  5.593E-01  7.963E-01
   1   13    8     7     2    1.4866E+02  1.8175E+00   1.4685E+02  0.000E+00  0.000E+00  0.000E+00  1.03478E+03  2.279E+00  5.526E+01  6.148E-01  9.854E-01
   1   13    7     7     3    1.4685E+02  1.4196E+00   1.4543E+02  0.000E+00  0.000E+00  0.000E+00  1.02969E+03  2.271E+00  5.522E+01  5.585E-01  8.473E-01
   1   13    6     8     1    1.5429E+02  7.8503E-01   1.5350E+02  0.000E+00  0.000E+00  0.000E+00  1.02472E+03  2.844E+00  4.124E+01  4.202E-01  6.227E-01
   1   13    5     8     2    1.5350E+02  6.3850E-02   1.5344E+02  0.000E+00  0.000E+00  0.000E+00  1.01847E+03  2.841E+00  4.120E+01  4.198E-01  5.070E-02
   1   13    4     8     3    1.5344E+02 -2.9830E+00   1.5642E+02  0.000E+00  0.000E+00  0.000E+00  1.01223E+03  2.851E+00  4.134E+01  4.213E+00 -2.360E-01
   1   13    3     8     4    1.5642E+02 -4.0431E+00   1.6046E+02  0.000E+00  0.000E+00  0.000E+00  1.00600E+03  2.875E+00  4.169E+01  4.248E+00 -3.172E-01
   1   13    2     8     5    1.6046E+02 -2.9356E+00   1.6340E+02  0.000E+00  0.000E+00  0.000E+00  9.99774E+02  2.899E+00  4.203E+01  4.283E+00 -2.285E-01
   1   13    1     8     6    1.6340E+02 -2.2086E+00   1.6561E+02  0.000E+00  0.000E+00  0.000E+00  9.94791E+02  2.916E+00  4.228E+01  2.585E+00 -2.848E-01
   1    8    6     9     1    3.5512E+01  0.0000E+00   3.5512E+01  0.000E+00  0.000E+00  0.000E+00  1.08360E+03  4.847E+00  4.000E+00  0.000E+00  2.616E+00
   1    8    5     9     2    3.5512E+01  0.0000E+00   3.5512E+01  0.000E+00  0.000E+00  0.000E+00  1.08310E+03  4.847E+00  4.000E+00  0.000E+00  2.616E+00



 UBDSV3 SAVING "           GW ET" ON UNIT  61 AT TIME STEP 1, STRESS PERIOD 20
 UBDSV3 SAVING "    UZF RECHARGE" ON UNIT  61 AT TIME STEP 1, STRESS PERIOD 20
 UBDSV3 SAVING " SURFACE LEAKAGE" ON UNIT  61 AT TIME STEP 1, STRESS PERIOD 20
 UBDSV3 SAVING "       HORT+DUNN" ON UNIT  61 AT TIME STEP 1, STRESS PERIOD 20
 UBDSV3 SAVING "  STORAGE CHANGE" ON UNIT  61 AT TIME STEP 1, STRESS PERIOD 20


UNSATURATED ZONE PACKAGE VOLUMETRIC BUDGET FOR  TIME STEP     1 STRESS PERIOD   20
  ------------------------------------------------------------------------------



     CUMULATIVE VOLUMES      L**3       RATES FOR THIS TIME STEP      L**3/T
     ------------------                 ------------------------

           IN:                                      IN:
           ---                                      ---
        INFILTRATION =   544696493.1759          INFILTRATION =          96.0789

          OUT:                                     OUT:
          ----                                     ----
              UZF ET =   537155147.7616                UZF ET =          60.8175
        UZF RECHARGE =       73224.0000          UZF RECHARGE =       0.0000E+00

            IN - OUT =     7468121.4142              IN - OUT =          35.2614

          STORAGE:                                 STORAGE:
          --------                                 --------
      STORAGE CHANGE =     7468322.6145        STORAGE CHANGE =          35.2614

 PERCENT DISCREPANCY IS DIFFERENCE BETWEEN IN-OUT MINUS CHANGE IN STORAGE
 DIVIDED BY THE AVERAGE OF IN AND OUT TIMES 100

 PERCENT DISCREPANCY =          -0.00     PERCENT DISCREPANCY =           0.00






 

            AG WELLS      PERIOD   20   STEP   1
 AG WELL      1   LAYER   1   ROW     6   COL     4   RATE    -9.95308    
 AG WELL      2   LAYER   1   ROW     6   COL     5   RATE    -9.95308    
 AG WELL      3   LAYER   1   ROW     7   COL     4   RATE    -9.95308    
 AG WELL      4   LAYER   1   ROW     7   COL     5   RATE    -9.95308    
 AG WELL      5   LAYER   1   ROW     8   COL     4   RATE    -9.95308    
 AG WELL      6   LAYER   1   ROW     8   COL     5   RATE    -9.95308    
 
 

   DIVERSION SEGMENTS     PERIOD   20   STEP   1
 SEGMENT      9   RATE     35.5122    
 
 

        SW IRRIGATION     PERIOD   20   STEP   1
 SEGMENT      9   ROW     6   COL     4   RATE     5.91882    
 SEGMENT      9   ROW     6   COL     5   RATE     5.91882    
 SEGMENT      9   ROW     7   COL     4   RATE     5.91882    
 SEGMENT      9   ROW     7   COL     5   RATE     5.91882    
 SEGMENT      9   ROW     8   COL     4   RATE     5.91882    
 SEGMENT      9   ROW     8   COL     5   RATE     5.91882    
 
 

        GW IRRIGATION     PERIOD   20   STEP   1
 AG WELL      1   ROW     6   COL     4   RATE     9.95309    
 AG WELL      2   ROW     6   COL     5   RATE     9.95309    
 AG WELL      3   ROW     7   COL     4   RATE     9.95309    
 AG WELL      4   ROW     7   COL     5   RATE     9.95309    
 AG WELL      5   ROW     8   COL     4   RATE     9.95309    
 AG WELL      6   ROW     8   COL     5   RATE     9.95309    
 
1
  VOLUMETRIC BUDGET FOR AGRICULTURAL FIELDS AT  END OF TIME STEP    1, STRESS PERIOD  20
  ------------------------------------------------------------------------------

     CUMULATIVE VOLUMES      L**3       RATES FOR THIS TIME STEP      L**3/T
     ------------------                 ------------------------

           IN:                                      IN:
           ---                                      ---
               AG WELLS  =    54387788.0000                 AG WELLS  =          59.7185
      DIVERSION SEGMENTS =   450089248.0000        DIVERSION SEGMENTS =          35.5122
       IRRIGATION PONDS  =           0.0000         IRRIGATION PONDS  =           0.0000
           GW IRRIGATION =           0.0000             GW IRRIGATION =           0.0000
           SW IRRIGATION =           0.0000             SW IRRIGATION =           0.0000
        SYSTEM LOSSES GW =           0.0000          SYSTEM LOSSES GW =           0.0000
        SYSTEM LOSSES SW =           0.0000          SYSTEM LOSSES SW =           0.0000

                TOTAL IN =   504477024.0000                  TOTAL IN =          95.2307

          OUT:                                     OUT:
          ----                                     ----
               AG WELLS  =           0.0000                 AG WELLS  =           0.0000
      DIVERSION SEGMENTS =           0.0000        DIVERSION SEGMENTS =           0.0000
       IRRIGATION PONDS  =           0.0000         IRRIGATION PONDS  =           0.0000
           GW IRRIGATION =    54387788.0000             GW IRRIGATION =          59.7185
           SW IRRIGATION =   450097888.0000             SW IRRIGATION =          35.5129
        SYSTEM LOSSES GW =           0.0000          SYSTEM LOSSES GW =           0.0000
        SYSTEM LOSSES SW =           0.0000          SYSTEM LOSSES SW =           0.0000

               TOTAL OUT =   504485664.0000                 TOTAL OUT =          95.2314

                IN - OUT =       -8640.0000                  IN - OUT =      -7.0190E-04

     PERCENT DISCREPANCY =          -0.00         PERCENT DISCREPANCY =          -0.00




 HEAD WILL BE SAVED ON UNIT   62 AT END OF TIME STEP    1, STRESS PERIOD   20
1
  VOLUMETRIC BUDGET FOR ENTIRE MODEL AT END OF TIME STEP    1, STRESS PERIOD  20
  ------------------------------------------------------------------------------

     CUMULATIVE VOLUMES      L**3       RATES FOR THIS TIME STEP      L**3/T
     ------------------                 ------------------------

           IN:                                      IN:
           ---                                      ---
             STORAGE     =   105167160.0000               STORAGE     =          61.2713
       CONSTANT HEAD     =           0.0000         CONSTANT HEAD     =           0.0000
     HEAD DEP BOUNDS     =    13577274.0000       HEAD DEP BOUNDS     =           0.2858
      STREAM LEAKAGE     =   571135360.0000        STREAM LEAKAGE     =          11.6924
        UZF RECHARGE     =       73223.9531          UZF RECHARGE     =           0.0000
               GW ET     =           0.0000                 GW ET     =           0.0000
     SURFACE LEAKAGE     =           0.0000       SURFACE LEAKAGE     =           0.0000
           AG WELLS      =           0.0000             AG WELLS      =           0.0000

                TOTAL IN =   689953024.0000                  TOTAL IN =          73.2496

          OUT:                                     OUT:
          ----                                     ----
             STORAGE     =   105578280.0000               STORAGE     =           0.9293
       CONSTANT HEAD     =           0.0000         CONSTANT HEAD     =           0.0000
     HEAD DEP BOUNDS     =    13839039.0000       HEAD DEP BOUNDS     =           0.2905
      STREAM LEAKAGE     =   513825536.0000        STREAM LEAKAGE     =          12.3112
        UZF RECHARGE     =           0.0000          UZF RECHARGE     =           0.0000
               GW ET     =     2326724.7500                 GW ET     =           0.0000
     SURFACE LEAKAGE     =           0.0000       SURFACE LEAKAGE     =           0.0000
           AG WELLS      =    54387788.0000             AG WELLS      =          59.7185

               TOTAL OUT =   689957376.0000                 TOTAL OUT =          73.2495

                IN - OUT =       -4352.0000                  IN - OUT =       3.8147E-05

     PERCENT DISCREPANCY =          -0.00         PERCENT DISCREPANCY =           0.00






         TIME SUMMARY AT END OF TIME STEP    1 IN STRESS PERIOD   20
                    SECONDS     MINUTES      HOURS       DAYS        YEARS
                    -----------------------------------------------------------
   TIME STEP LENGTH  87667.      1461.1      24.352      1.0147     2.77799E-03
 STRESS PERIOD TIME  87667.      1461.1      24.352      1.0147     2.77799E-03
         TOTAL TIME 4.75142E+07 7.91903E+05  13198.      549.93      1.5056    
1
 
 SOLVING FOR HEAD 
                                                   Max.-Head-Change                         Max.-Flux-Residual
  Residual-Control   Outer-Iter.   Inner-Iter.     Column Row Layer    Maximum-Head-Change  Column Row Layer    Maximum-Flux-Residual          L2-NORM 
          0                 1           2             4   13     1       0.7722185391E-02       4   13    1         0.4448669761E+00      0.1028909344E+01
          0                 2           2             4    6     1      -0.1577755623E-01       5    8    1        -0.8679823564E+00      0.2123067303E+01
          0                 3           2             4    7     1      -0.7021905059E-01       4    7    1        -0.3769215365E+01      0.9290503565E+01
          0                 4           2             4    7     1       0.8600443392E-01       4    7    1         0.4745557966E+01      0.1162457689E+02
          0                 5           2             4    7     1      -0.8290454548E-01       4    7    1        -0.4702022743E+01      0.1151761272E+02
          0                 6           2             4    7     1       0.5094176287E-02       4    7    1         0.2969456586E+00      0.7272989423E+00
          0                 7           1             4    7     1       0.7482548234E-04       5    8    1         0.4365853840E-02      0.1069705569E-01

    ------------------------------------------------
       NWT REQUIRED            7 OUTER ITERATIONS 
       AND A TOTAL OF         13 INNER ITERATIONS.
    ------------------------------------------------

 NO OUTPUT CONTROL FOR STRESS PERIOD   20   TIME STEP    2
 
 SOLVING FOR HEAD 
                                                   Max.-Head-Change                         Max.-Flux-Residual
  Residual-Control   Outer-Iter.   Inner-Iter.     Column Row Layer    Maximum-Head-Change  Column Row Layer    Maximum-Flux-Residual          L2-NORM 
          0                 1           2             4   13     1       0.8256812317E-02       4   13    1         0.4757208124E+00      0.1232168108E+01
          0                 2           2             4    7     1      -0.3091081468E-01       5    8    1        -0.1689843762E+01      0.4134993281E+01
          0                 3           2             4    7     1      -0.1065267921E+00       4    7    1        -0.5718084560E+01      0.1403539633E+02
          0                 4           2             4    7     1       0.8469031746E-01       4    7    1         0.4673002930E+01      0.1144704369E+02
          0                 5           2             4    7     1      -0.3370805707E-02       4    7    1        -0.1911717915E+00      0.4683193769E+00
          0                 6           1             4    7     1       0.4159427964E-04       4    7    1         0.2424169450E-02      0.5959473963E-02

    ------------------------------------------------
       NWT REQUIRED            6 OUTER ITERATIONS 
       AND A TOTAL OF         11 INNER ITERATIONS.
    ------------------------------------------------

 NO OUTPUT CONTROL FOR STRESS PERIOD   20   TIME STEP    3
 
 SOLVING FOR HEAD 
                                                   Max.-Head-Change                         Max.-Flux-Residual
  Residual-Control   Outer-Iter.   Inner-Iter.     Column Row Layer    Maximum-Head-Change  Column Row Layer    Maximum-Flux-Residual          L2-NORM 
          0                 1           2             5    8     1       0.9281398948E-02       5    8    1         0.5087357058E+00      0.1378924210E+01
          0                 2           2             4    7     1      -0.4549636482E-01       5    8    1        -0.2477550593E+01      0.6068031398E+01
          0                 3           2             4    7     1      -0.7788313364E-01       4    7    1        -0.4180583822E+01      0.1026451751E+02
          0                 4           2             4    7     1       0.6859130412E-01       4    7    1         0.3784698554E+01      0.9271262702E+01
          0                 5           2             4    7     1      -0.2730043523E-02       4    7    1        -0.1548316060E+00      0.3793256984E+00
          0                 6           1             4    7     1       0.3368756349E-04       4    7    1         0.1963356247E-02      0.4831003546E-02

    ------------------------------------------------
       NWT REQUIRED            6 OUTER ITERATIONS 
       AND A TOTAL OF         11 INNER ITERATIONS.
    ------------------------------------------------

 NO OUTPUT CONTROL FOR STRESS PERIOD   20   TIME STEP    4
 
 SOLVING FOR HEAD 
                                                   Max.-Head-Change                         Max.-Flux-Residual
  Residual-Control   Outer-Iter.   Inner-Iter.     Column Row Layer    Maximum-Head-Change  Column Row Layer    Maximum-Flux-Residual          L2-NORM 
          0                 1           2             5    8     1       0.1053934180E-01       5    8    1         0.5776980621E+00      0.1525492073E+01
          0                 2           2             4    7     1      -0.5747730826E-01       5    8    1        -0.3125195644E+01      0.7657011463E+01
          0                 3           2             4    7     1      -0.5708374648E-01       4    7    1        -0.3064139672E+01      0.7525271113E+01
          0                 4           2             4    7     1       0.5556231501E-01       4    7    1         0.3065790508E+01      0.7510454748E+01
          0                 5           2             4    7     1      -0.2211478978E-02       4    7    1        -0.1254217293E+00      0.3073119252E+00
          0                 6           1             4    7     1       0.2728870758E-04       4    7    1         0.1590422583E-02      0.3918817990E-02

    ------------------------------------------------
       NWT REQUIRED            6 OUTER ITERATIONS 
       AND A TOTAL OF         11 INNER ITERATIONS.
    ------------------------------------------------

 NO OUTPUT CONTROL FOR STRESS PERIOD   20   TIME STEP    5
 
 SOLVING FOR HEAD 
                                                   Max.-Head-Change                         Max.-Flux-Residual
  Residual-Control   Outer-Iter.   Inner-Iter.     Column Row Layer    Maximum-Head-Change  Column Row Layer    Maximum-Flux-Residual          L2-NORM 
          0                 1           2             5    8     1       0.1184327848E-01       5    8    1         0.6491554911E+00      0.1678229661E+01
          0                 2           2             4    7     1      -0.6553997714E-01       5    8    1        -0.3562578530E+01      0.8728723020E+01
          0                 3           2             4    7     1      -0.4441200276E-01       4    7    1        -0.2383963939E+01      0.5856664441E+01
          0                 4           2             4    7     1       0.4690200531E-01       4    7    1         0.2587935306E+01      0.6338852413E+01
          0                 5           2             4    7     1      -0.1866785669E-02       4    7    1        -0.1058727738E+00      0.2593030114E+00
          0                 6           1             4    7     1       0.2303534321E-04       4    7    1         0.1342530566E-02      0.3294156739E-02

    ------------------------------------------------
       NWT REQUIRED            6 OUTER ITERATIONS 
       AND A TOTAL OF         11 INNER ITERATIONS.
    ------------------------------------------------

 NO OUTPUT CONTROL FOR STRESS PERIOD   20   TIME STEP    6
 
 SOLVING FOR HEAD 
                                                   Max.-Head-Change                         Max.-Flux-Residual
  Residual-Control   Outer-Iter.   Inner-Iter.     Column Row Layer    Maximum-Head-Change  Column Row Layer    Maximum-Flux-Residual          L2-NORM 
          0                 1           2             5    8     1       0.1319148669E-01       5    8    1         0.7230124105E+00      0.1837022132E+01
          0                 2           2             4    7     1      -0.7038151156E-01       5    8    1        -0.3827110920E+01      0.9375171625E+01
          0                 3           2             4    7     1      -0.3732473112E-01       4    7    1        -0.2003546036E+01      0.4922595278E+01
          0                 4           2             4    7     1       0.4175900773E-01       4    7    1         0.2304156491E+01      0.5643699729E+01
          0                 5           2             4    7     1      -0.1662089597E-02       4    7    1        -0.9426360722E-01      0.2308667967E+00
          0                 6           1             4    7     1       0.2050948317E-04       4    7    1         0.1195319474E-02      0.2932900320E-02

    ------------------------------------------------
       NWT REQUIRED            6 OUTER ITERATIONS 
       AND A TOTAL OF         11 INNER ITERATIONS.
    ------------------------------------------------

 NO OUTPUT CONTROL FOR STRESS PERIOD   20   TIME STEP    7
 
 SOLVING FOR HEAD 
                                                   Max.-Head-Change                         Max.-Flux-Residual
  Residual-Control   Outer-Iter.   Inner-Iter.     Column Row Layer    Maximum-Head-Change  Column Row Layer    Maximum-Flux-Residual          L2-NORM 
          0                 1           2             5    8     1       0.1455174921E-01       5    8    1         0.7974941556E+00      0.1998599275E+01
          0                 2           2             4    7     1      -0.7314408641E-01       5    8    1        -0.3979958539E+01      0.9746969095E+01
          0                 3           2             4    7     1      -0.3347644644E-01       4    7    1        -0.1796986900E+01      0.4415143259E+01
          0                 4           2             4    7     1       0.3886183478E-01       4    7    1         0.2144296486E+01      0.5252087341E+01
          0                 5           2             4    7     1      -0.1546783778E-02       4    7    1        -0.8772410589E-01      0.2148479858E+00
          0                 6           1             4    7     1       0.1908665911E-04       4    7    1         0.1112394560E-02      0.2729405682E-02

    ------------------------------------------------
       NWT REQUIRED            6 OUTER ITERATIONS 
       AND A TOTAL OF         11 INNER ITERATIONS.
    ------------------------------------------------

 NO OUTPUT CONTROL FOR STRESS PERIOD   20   TIME STEP    8
 
 SOLVING FOR HEAD 
                                                   Max.-Head-Change                         Max.-Flux-Residual
  Residual-Control   Outer-Iter.   Inner-Iter.     Column Row Layer    Maximum-Head-Change  Column Row Layer    Maximum-Flux-Residual          L2-NORM 
          0                 1           2             5    8     1       0.1589320781E-01       5    8    1         0.8709013971E+00      0.2159695849E+01
          0                 2           2             4    7     1      -0.7469478046E-01       5    8    1        -0.4067525329E+01      0.9958417164E+01
          0                 3           2             4    7     1      -0.3140099025E-01       4    7    1        -0.1685587318E+01      0.4141253116E+01
          0                 4           2             4    7     1       0.3726655263E-01       4    7    1         0.2056271354E+01      0.5036436892E+01
          0                 5           2             4    7     1      -0.1483281787E-02       4    7    1        -0.8412259499E-01      0.2060254209E+00
          0                 6           1             4    7     1       0.1830307201E-04       4    7    1         0.1066725062E-02      0.2617332935E-02

    ------------------------------------------------
       NWT REQUIRED            6 OUTER ITERATIONS 
       AND A TOTAL OF         11 INNER ITERATIONS.
    ------------------------------------------------

 NO OUTPUT CONTROL FOR STRESS PERIOD   20   TIME STEP    9
 
 SOLVING FOR HEAD 
                                                   Max.-Head-Change                         Max.-Flux-Residual
  Residual-Control   Outer-Iter.   Inner-Iter.     Column Row Layer    Maximum-Head-Change  Column Row Layer    Maximum-Flux-Residual          L2-NORM 
          0                 1           2             5    8     1       0.1719680408E-01       5    8    1         0.9421875626E+00      0.2318009402E+01
          0                 2           2             4    7     1      -0.7556834014E-01       5    8    1        -0.4118436783E+01      0.1008000857E+02
          0                 3           2             4    7     1      -0.3028134066E-01       4    7    1        -0.1625491914E+01      0.3993324069E+01
          0                 4           2             4    7     1       0.3639684506E-01       4    7    1         0.2008281419E+01      0.4918854827E+01
          0                 5           2             4    7     1      -0.1448666702E-02       4    7    1        -0.8215936615E-01      0.2012156165E+00
          0                 6           1             4    7     1       0.1787593644E-04       4    7    1         0.1041829902E-02      0.2556241036E-02

    ------------------------------------------------
       NWT REQUIRED            6 OUTER ITERATIONS 
       AND A TOTAL OF         11 INNER ITERATIONS.
    ------------------------------------------------

 NO OUTPUT CONTROL FOR STRESS PERIOD   20   TIME STEP   10
 
 SOLVING FOR HEAD 
                                                   Max.-Head-Change                         Max.-Flux-Residual
  Residual-Control   Outer-Iter.   Inner-Iter.     Column Row Layer    Maximum-Head-Change  Column Row Layer    Maximum-Flux-Residual          L2-NORM 
          0                 1           2             5    8     1       0.1845283341E-01       5    8    1         0.1010820689E+01      0.2472241962E+01
          0                 2           2             4    7     1      -0.7607050038E-01       5    8    1        -0.4149072465E+01      0.1015207318E+02
          0                 3           2             4    7     1      -0.2967589066E-01       4    7    1        -0.1592996557E+01      0.3913174322E+01
          0                 4           2             4    7     1       0.3592481548E-01       4    7    1         0.1982234192E+01      0.4855024021E+01
          0                 5           2             4    7     1      -0.1429887944E-02       4    7    1        -0.8109427085E-01      0.1986057506E+00
          0                 6           1             4    7     1       0.1764421458E-04       4    7    1         0.1028323617E-02      0.2523097557E-02

    ------------------------------------------------
       NWT REQUIRED            6 OUTER ITERATIONS 
       AND A TOTAL OF         11 INNER ITERATIONS.
    ------------------------------------------------

 NO OUTPUT CONTROL FOR STRESS PERIOD   20   TIME STEP   11
 
 SOLVING FOR HEAD 
                                                   Max.-Head-Change                         Max.-Flux-Residual
  Residual-Control   Outer-Iter.   Inner-Iter.     Column Row Layer    Maximum-Head-Change  Column Row Layer    Maximum-Flux-Residual          L2-NORM 
          0                 1           2             5    8     1       0.1965706481E-01       5    8    1         0.1076572201E+01      0.2621703904E+01
          0                 2           2             4    7     1      -0.7637081214E-01       5    8    1        -0.4168522351E+01      0.1019697335E+02
          0                 3           2             4    7     1      -0.2934732698E-01       4    7    1        -0.1575362987E+01      0.3869541574E+01
          0                 4           2             4    7     1       0.3566914647E-01       4    7    1         0.1968125053E+01      0.4820438125E+01
          0                 5           2             4    7     1      -0.1419712108E-02       4    7    1        -0.8051707516E-01      0.1971909882E+00
          0                 6           1             4    7     1       0.1751864949E-04       4    7    1         0.1021004200E-02      0.2505137510E-02

    ------------------------------------------------
       NWT REQUIRED            6 OUTER ITERATIONS 
       AND A TOTAL OF         11 INNER ITERATIONS.
    ------------------------------------------------

 NO OUTPUT CONTROL FOR STRESS PERIOD   20   TIME STEP   12
 
 SOLVING FOR HEAD 
                                                   Max.-Head-Change                         Max.-Flux-Residual
  Residual-Control   Outer-Iter.   Inner-Iter.     Column Row Layer    Maximum-Head-Change  Column Row Layer    Maximum-Flux-Residual          L2-NORM 
          0                 1           2             5    8     1       0.2080893367E-01       5    8    1         0.1139413970E+01      0.2766111312E+01
          0                 2           2             4    7     1      -0.7656193384E-01       5    8    1        -0.4181770390E+01      0.1022695902E+02
          0                 3           2             4    7     1      -0.2916800163E-01       4    7    1        -0.1565739605E+01      0.3845605904E+01
          0                 4           2             4    7     1       0.3553076747E-01       4    7    1         0.1960491720E+01      0.4801708764E+01
          0                 5           2             4    7     1      -0.1414204506E-02       4    7    1        -0.8020908728E-01      0.1964266004E+00
          0                 6           1             4    7     1       0.1745068834E-04       4    7    1         0.1017275586E-02      0.2495438674E-02

    ------------------------------------------------
       NWT REQUIRED            6 OUTER ITERATIONS 
       AND A TOTAL OF         11 INNER ITERATIONS.
    ------------------------------------------------

 NO OUTPUT CONTROL FOR STRESS PERIOD   20   TIME STEP   13
 
 SOLVING FOR HEAD 
                                                   Max.-Head-Change                         Max.-Flux-Residual
  Residual-Control   Outer-Iter.   Inner-Iter.     Column Row Layer    Maximum-Head-Change  Column Row Layer    Maximum-Flux-Residual          L2-NORM 
          0                 1           2             5    8     1       0.2190952489E-01       5    8    1         0.1199409267E+01      0.2905439556E+01
          0                 2           2             4    7     1      -0.7669419390E-01       5    8    1        -0.4191533250E+01      0.1024869555E+02
          0                 3           2             4    7     1      -0.2906918676E-01       4    7    1        -0.1560437456E+01      0.3832309005E+01
          0                 4           2             4    7     1       0.3545586844E-01       4    7    1         0.1956356861E+01      0.4791560815E+01
          0                 5           2             4    7     1      -0.1411215056E-02       4    7    1        -0.8003944934E-01      0.1960115961E+00
          0                 6           1             4    7     1       0.1741379972E-04       4    7    1         0.1015124104E-02      0.2490169086E-02

    ------------------------------------------------
       NWT REQUIRED            6 OUTER ITERATIONS 
       AND A TOTAL OF         11 INNER ITERATIONS.
    ------------------------------------------------

 NO OUTPUT CONTROL FOR STRESS PERIOD   20   TIME STEP   14
 
 SOLVING FOR HEAD 
                                                   Max.-Head-Change                         Max.-Flux-Residual
  Residual-Control   Outer-Iter.   Inner-Iter.     Column Row Layer    Maximum-Head-Change  Column Row Layer    Maximum-Flux-Residual          L2-NORM 
          0                 1           2             5    8     1       0.2296060133E-01       5    8    1         0.1256658494E+01      0.3039748221E+01
          0                 2           2             4    7     1      -0.7679487317E-01       5    8    1        -0.4199292491E+01      0.1026580605E+02
          0                 3           2             4    7     1      -0.2901380286E-01       4    7    1        -0.1557466029E+01      0.3824765311E+01
          0                 4           2             4    7     1       0.3541528098E-01       4    7    1         0.1954115141E+01      0.4786052826E+01
          0                 5           2             4    7     1      -0.1409608050E-02       4    7    1        -0.7994821578E-01      0.1957891476E+00
          0                 6           1             4    7     1       0.1739397022E-04       4    7    1         0.1013967037E-02      0.2487336663E-02

    ------------------------------------------------
       NWT REQUIRED            6 OUTER ITERATIONS 
       AND A TOTAL OF         11 INNER ITERATIONS.
    ------------------------------------------------

 NO OUTPUT CONTROL FOR STRESS PERIOD   20   TIME STEP   15
 
 SOLVING FOR HEAD 
                                                   Max.-Head-Change                         Max.-Flux-Residual
  Residual-Control   Outer-Iter.   Inner-Iter.     Column Row Layer    Maximum-Head-Change  Column Row Layer    Maximum-Flux-Residual          L2-NORM 
          0                 1           2             5    8     1       0.2396494374E-01       5    8    1         0.1311317610E+01      0.3169205137E+01
          0                 2           2             4    7     1      -0.7687858878E-01       5    8    1        -0.4205857164E+01      0.1028025404E+02
          0                 3           2             4    7     1      -0.2898186033E-01       4    7    1        -0.1555752387E+01      0.3820338758E+01
          0                 4           2             4    7     1       0.3539323748E-01       4    7    1         0.1952896557E+01      0.4783068236E+01
          0                 5           2             4    7     1      -0.1408722293E-02       4    8    1        -0.7990060636E-01      0.1956833149E+00
          0                 6           1             4    7     1       0.1738303994E-04       5    7    1         0.1013474740E-02      0.2485258961E-02

    ------------------------------------------------
       NWT REQUIRED            6 OUTER ITERATIONS 
       AND A TOTAL OF         11 INNER ITERATIONS.
    ------------------------------------------------

 NO OUTPUT CONTROL FOR STRESS PERIOD   20   TIME STEP   16
 
 SOLVING FOR HEAD 
                                                   Max.-Head-Change                         Max.-Flux-Residual
  Residual-Control   Outer-Iter.   Inner-Iter.     Column Row Layer    Maximum-Head-Change  Column Row Layer    Maximum-Flux-Residual          L2-NORM 
          0                 1           2             5    8     1       0.2492515586E-01       5    8    1         0.1363532708E+01      0.3294005682E+01
          0                 2           2             4    7     1      -0.7695325093E-01       5    8    1        -0.4211672940E+01      0.1029311261E+02
          0                 3           2             4    7     1      -0.2896253602E-01       4    7    1        -0.1554715616E+01      0.3817600884E+01
          0                 4           2             4    7     1       0.3538119710E-01       4    7    1         0.1952229855E+01      0.4781420824E+01
          0                 5           2             4    7     1      -0.1408243076E-02       4    8    1        -0.7987312775E-01      0.1956159315E+00
          0                 6           1             4    7     1       0.1737712684E-04       5    7    1         0.1013126010E-02      0.2484397939E-02

    ------------------------------------------------
       NWT REQUIRED            6 OUTER ITERATIONS 
       AND A TOTAL OF         11 INNER ITERATIONS.
    ------------------------------------------------

 NO OUTPUT CONTROL FOR STRESS PERIOD   20   TIME STEP   17
 
 SOLVING FOR HEAD 
                                                   Max.-Head-Change                         Max.-Flux-Residual
  Residual-Control   Outer-Iter.   Inner-Iter.     Column Row Layer    Maximum-Head-Change  Column Row Layer    Maximum-Flux-Residual          L2-NORM 
          0                 1           2             5    8     1       0.2584325698E-01       5    8    1         0.1413416902E+01      0.3414333271E+01
          0                 2           2             4    7     1      -0.7702310370E-01       5    8    1        -0.4216981918E+01      0.1030496278E+02
          0                 3           2             4    7     1      -0.2895009609E-01       4    7    1        -0.1554047961E+01      0.3815794701E+01
          0                 4           2             4    7     1       0.3537458658E-01       4    7    1         0.1951862698E+01      0.4780518460E+01
          0                 5           2             4    7     1      -0.1407988380E-02       4    8    1        -0.7985840895E-01      0.1955898481E+00
          0                 6           1             4    7     1       0.1737398390E-04       4    6    1         0.1012960781E-02      0.2483613071E-02

    ------------------------------------------------
       NWT REQUIRED            6 OUTER ITERATIONS 
       AND A TOTAL OF         11 INNER ITERATIONS.
    ------------------------------------------------

 NO OUTPUT CONTROL FOR STRESS PERIOD   20   TIME STEP   18
 
 SOLVING FOR HEAD 
                                                   Max.-Head-Change                         Max.-Flux-Residual
  Residual-Control   Outer-Iter.   Inner-Iter.     Column Row Layer    Maximum-Head-Change  Column Row Layer    Maximum-Flux-Residual          L2-NORM 
          0                 1           2             5    8     1       0.2672219130E-01       5    8    1         0.1461135498E+01      0.3530400392E+01
          0                 2           2             4    7     1      -0.7709032953E-01       5    8    1        -0.4221926037E+01      0.1031612360E+02
          0                 3           2             4    7     1      -0.2894133176E-01       4    7    1        -0.1553577226E+01      0.3814495188E+01
          0                 4           2             4    7     1       0.3537091449E-01       4    7    1         0.1951657624E+01      0.4780005390E+01
          0                 5           2             4    7     1      -0.1407842228E-02       4    8    1        -0.7984987177E-01      0.1955688774E+00
          0                 6           1             4    7     1       0.1737218022E-04       4    6    1         0.1012852230E-02      0.2483352998E-02

    ------------------------------------------------
       NWT REQUIRED            6 OUTER ITERATIONS 
       AND A TOTAL OF         11 INNER ITERATIONS.
    ------------------------------------------------

 NO OUTPUT CONTROL FOR STRESS PERIOD   20   TIME STEP   19
 
 SOLVING FOR HEAD 
                                                   Max.-Head-Change                         Max.-Flux-Residual
  Residual-Control   Outer-Iter.   Inner-Iter.     Column Row Layer    Maximum-Head-Change  Column Row Layer    Maximum-Flux-Residual          L2-NORM 
          0                 1           2             5    8     1       0.2756389345E-01       5    8    1         0.1506796367E+01      0.3642437817E+01
          0                 2           2             4    7     1      -0.7715618581E-01       5    8    1        -0.4226585703E+01      0.1032678333E+02
          0                 3           2             4    7     1      -0.2893453809E-01       4    7    1        -0.1553211911E+01      0.3813476548E+01
          0                 4           2             4    7     1       0.3536880288E-01       4    7    1         0.1951538608E+01      0.4779723190E+01
          0                 5           2             4    7     1      -0.1422328678E-02       4    8    1        -0.8067123480E-01      0.1975993198E+00
          0                 6           1             4    7     1       0.1749367443E-04       4    6    1         0.1019936753E-02      0.2499884814E-02

    ------------------------------------------------
       NWT REQUIRED            6 OUTER ITERATIONS 
       AND A TOTAL OF         11 INNER ITERATIONS.
    ------------------------------------------------

 NO OUTPUT CONTROL FOR STRESS PERIOD   20   TIME STEP   20
 
 SOLVING FOR HEAD 
                                                   Max.-Head-Change                         Max.-Flux-Residual
  Residual-Control   Outer-Iter.   Inner-Iter.     Column Row Layer    Maximum-Head-Change  Column Row Layer    Maximum-Flux-Residual          L2-NORM 
          0                 1           2             5    8     1       0.2837123087E-01       5    8    1         0.1550559025E+01      0.3750665956E+01
          0                 2           2             4    7     1      -0.7721139963E-01       5    8    1        -0.4230485725E+01      0.1033574786E+02
          0                 3           2             4    7     1      -0.2894204613E-01       4    7    1        -0.1553613945E+01      0.3814361498E+01
          0                 4           2             4    7     1       0.3537798416E-01       4    7    1         0.1952042658E+01      0.4780959461E+01
          0                 5           2             4    7     1      -0.1408115199E-02       5    6    1        -0.7986682656E-01      0.1956337728E+00
          0                 6           1             4    7     1       0.1737554854E-04       5    6    1         0.1013188430E-02      0.2482570756E-02

    ------------------------------------------------
       NWT REQUIRED            6 OUTER ITERATIONS 
       AND A TOTAL OF         11 INNER ITERATIONS.
    ------------------------------------------------

 NO OUTPUT CONTROL FOR STRESS PERIOD   20   TIME STEP   21
 
 SOLVING FOR HEAD 
                                                   Max.-Head-Change                         Max.-Flux-Residual
  Residual-Control   Outer-Iter.   Inner-Iter.     Column Row Layer    Maximum-Head-Change  Column Row Layer    Maximum-Flux-Residual          L2-NORM 
          0                 1           2             5    8     1       0.2914497058E-01       5    8    1         0.1592467564E+01      0.3855144772E+01
          0                 2           2             4    7     1      -0.7728041225E-01       5    8    1        -0.4234946582E+01      0.1034625626E+02
          0                 3           2             4    7     1      -0.2893083900E-01       4    7    1        -0.1553011124E+01      0.3812798528E+01
          0                 4           2             4    7     1       0.3537238357E-01       4    7    1         0.1951731060E+01      0.4780189958E+01
          0                 5           2             4    7     1      -0.1407892291E-02       5    6    1        -0.7985391785E-01      0.1956022925E+00
          0                 6           1             4    7     1       0.1737279788E-04       5    6    1         0.1013024708E-02      0.2482169385E-02

    ------------------------------------------------
       NWT REQUIRED            6 OUTER ITERATIONS 
       AND A TOTAL OF         11 INNER ITERATIONS.
    ------------------------------------------------

 NO OUTPUT CONTROL FOR STRESS PERIOD   20   TIME STEP   22
 
 SOLVING FOR HEAD 
                                                   Max.-Head-Change                         Max.-Flux-Residual
  Residual-Control   Outer-Iter.   Inner-Iter.     Column Row Layer    Maximum-Head-Change  Column Row Layer    Maximum-Flux-Residual          L2-NORM 
          0                 1           2             5    8     1       0.2988790305E-01       5    8    1         0.1632676954E+01      0.3956147393E+01
          0                 2           2             4    7     1      -0.7734695990E-01       5    8    1        -0.4239113543E+01      0.1035618741E+02
          0                 3           2             4    7     1      -0.2892277174E-01       4    7    1        -0.1552576570E+01      0.3811665538E+01
          0                 4           2             4    7     1       0.3536922664E-01       4    7    1         0.1951554266E+01      0.4779762268E+01
          0                 5           2             4    7     1      -0.1407766643E-02       5    8    1        -0.7984999234E-01      0.1955949261E+00
          0                 6           1             4    7     1       0.1737124758E-04       5    8    1         0.1012985435E-02      0.2481477768E-02

    ------------------------------------------------
       NWT REQUIRED            6 OUTER ITERATIONS 
       AND A TOTAL OF         11 INNER ITERATIONS.
    ------------------------------------------------

 NO OUTPUT CONTROL FOR STRESS PERIOD   20   TIME STEP   23
 
 SOLVING FOR HEAD 
                                                   Max.-Head-Change                         Max.-Flux-Residual
  Residual-Control   Outer-Iter.   Inner-Iter.     Column Row Layer    Maximum-Head-Change  Column Row Layer    Maximum-Flux-Residual          L2-NORM 
          0                 1           2             5    8     1       0.3060167217E-01       5    8    1         0.1671278523E+01      0.4053829440E+01
          0                 2           2             4    7     1      -0.7741199987E-01       5    8    1        -0.4243052008E+01      0.1036568971E+02
          0                 3           2             4    7     1      -0.2891639145E-01       4    7    1        -0.1552232322E+01      0.3810769946E+01
          0                 4           2             4    7     1       0.3536742918E-01       4    7    1         0.1951452459E+01      0.4779509018E+01
          0                 5           2             4    7     1      -0.1420020816E-02       5    8    1        -0.8054477982E-01      0.1972967411E+00
          0                 6           1             4    7     1       0.1747337648E-04       5    8    1         0.1018944381E-02      0.2496086983E-02

    ------------------------------------------------
       NWT REQUIRED            6 OUTER ITERATIONS 
       AND A TOTAL OF         11 INNER ITERATIONS.
    ------------------------------------------------

 NO OUTPUT CONTROL FOR STRESS PERIOD   20   TIME STEP   24
 
 SOLVING FOR HEAD 
                                                   Max.-Head-Change                         Max.-Flux-Residual
  Residual-Control   Outer-Iter.   Inner-Iter.     Column Row Layer    Maximum-Head-Change  Column Row Layer    Maximum-Flux-Residual          L2-NORM 
          0                 1           2             5    8     1       0.3128821184E-01       5    8    1         0.1708380544E+01      0.4148382890E+01
          0                 2           2             4    7     1      -0.7746784367E-01       5    8    1        -0.4246359864E+01      0.1037375989E+02
          0                 3           2             4    7     1      -0.2892209719E-01       4    7    1        -0.1552536568E+01      0.3811481143E+01
          0                 4           2             4    7     1       0.3537515754E-01       4    7    1         0.1951876227E+01      0.4780544237E+01
          0                 5           2             4    7     1      -0.1408011106E-02       5    8    1        -0.7986349455E-01      0.1956280899E+00
          0                 6           1             4    7     1       0.1737426417E-04       5    8    1         0.1013156720E-02      0.2481897085E-02

    ------------------------------------------------
       NWT REQUIRED            6 OUTER ITERATIONS 
       AND A TOTAL OF         11 INNER ITERATIONS.
    ------------------------------------------------

 NO OUTPUT CONTROL FOR STRESS PERIOD   20   TIME STEP   25
 
 SOLVING FOR HEAD 
                                                   Max.-Head-Change                         Max.-Flux-Residual
  Residual-Control   Outer-Iter.   Inner-Iter.     Column Row Layer    Maximum-Head-Change  Column Row Layer    Maximum-Flux-Residual          L2-NORM 
          0                 1           2             5    8     1       0.3194825996E-01       5    8    1         0.1744024221E+01      0.4239871554E+01
          0                 2           2             4    7     1      -0.7753508629E-01       5    8    1        -0.4250152261E+01      0.1038313490E+02
          0                 3           2             4    7     1      -0.2891202719E-01       4    7    1        -0.1551993831E+01      0.3810126217E+01
          0                 4           2             4    7     1       0.3537038669E-01       4    7    1         0.1951610319E+01      0.4779891020E+01
          0                 5           2             4    7     1      -0.1407812814E-02       5    8    1        -0.7985209968E-01      0.1956001989E+00
          0                 6           1             4    7     1       0.1737181707E-04       5    8    1         0.1013012160E-02      0.2481545827E-02

    ------------------------------------------------
       NWT REQUIRED            6 OUTER ITERATIONS 
       AND A TOTAL OF         11 INNER ITERATIONS.
    ------------------------------------------------

 NO OUTPUT CONTROL FOR STRESS PERIOD   20   TIME STEP   26
 
 SOLVING FOR HEAD 
                                                   Max.-Head-Change                         Max.-Flux-Residual
  Residual-Control   Outer-Iter.   Inner-Iter.     Column Row Layer    Maximum-Head-Change  Column Row Layer    Maximum-Flux-Residual          L2-NORM 
          0                 1           2             5    8     1       0.3258371311E-01       5    8    1         0.1778314774E+01      0.4328482439E+01
          0                 2           2             4    7     1      -0.7759996961E-01       5    8    1        -0.4253704438E+01      0.1039201775E+02
          0                 3           2             4    7     1      -0.2890460976E-01       4    7    1        -0.1551593289E+01      0.3809132688E+01
          0                 4           2             4    7     1       0.3536768910E-01       4    7    1         0.1951458792E+01      0.4779518856E+01
          0                 5           2             4    7     1      -0.1407705447E-02       5    8    1        -0.7984588574E-01      0.1955849651E+00
          0                 6           1             4    7     1       0.1557897859E-04       5    8    1         0.9085059919E-03      0.2225628222E-02

    ------------------------------------------------
       NWT REQUIRED            6 OUTER ITERATIONS 
       AND A TOTAL OF         11 INNER ITERATIONS.
    ------------------------------------------------

 NO OUTPUT CONTROL FOR STRESS PERIOD   20   TIME STEP   27
 
 SOLVING FOR HEAD 
                                                   Max.-Head-Change                         Max.-Flux-Residual
  Residual-Control   Outer-Iter.   Inner-Iter.     Column Row Layer    Maximum-Head-Change  Column Row Layer    Maximum-Flux-Residual          L2-NORM 
          0                 1           2             5    8     1       0.3319613251E-01       5    8    1         0.1811338981E+01      0.4414373922E+01
          0                 2           2             4    7     1      -0.7766214153E-01       5    8    1        -0.4257006954E+01      0.1040037564E+02
          0                 3           2             4    7     1      -0.2890030486E-01       4    7    1        -0.1551359645E+01      0.3808559935E+01
          0                 4           2             4    7     1       0.3536744384E-01       4    7    1         0.1951443404E+01      0.4779500189E+01
          0                 5           2             4    7     1      -0.1407689286E-02       5    6    1        -0.7984227495E-01      0.1947823579E+00
          0                 6           1             4    7     1       0.1557877697E-04       5    6    1         0.9084498943E-03      0.2216200242E-02

    ------------------------------------------------
       NWT REQUIRED            6 OUTER ITERATIONS 
       AND A TOTAL OF         11 INNER ITERATIONS.
    ------------------------------------------------

 NO OUTPUT CONTROL FOR STRESS PERIOD   20   TIME STEP   28
 
 SOLVING FOR HEAD 
                                                   Max.-Head-Change                         Max.-Flux-Residual
  Residual-Control   Outer-Iter.   Inner-Iter.     Column Row Layer    Maximum-Head-Change  Column Row Layer    Maximum-Flux-Residual          L2-NORM 
          0                 1           2             5    8     1       0.3378655738E-01       5    8    1         0.1843155101E+01      0.4497662056E+01
          0                 2           2             4    7     1      -0.7772385193E-01       5    8    1        -0.4260188658E+01      0.1040851793E+02
          0                 3           2             4    7     1      -0.2889602241E-01       4    7    1        -0.1551127098E+01      0.3807999677E+01
          0                 4           2             4    7     1       0.3536718323E-01       5    8    1         0.1952605669E+01      0.4780092508E+01
          0                 5           2             4    7     1      -0.1407682072E-02       5    6    1        -0.7984109515E-01      0.1954260403E+00
          0                 6           1             4    7     1       0.1557868657E-04       5    6    1         0.9084349604E-03      0.2223779664E-02

    ------------------------------------------------
       NWT REQUIRED            6 OUTER ITERATIONS 
       AND A TOTAL OF         11 INNER ITERATIONS.
    ------------------------------------------------

 NO OUTPUT CONTROL FOR STRESS PERIOD   20   TIME STEP   29
 
 SOLVING FOR HEAD 
                                                   Max.-Head-Change                         Max.-Flux-Residual
  Residual-Control   Outer-Iter.   Inner-Iter.     Column Row Layer    Maximum-Head-Change  Column Row Layer    Maximum-Flux-Residual          L2-NORM 
          0                 1           2             5    6     1       0.3435768676E-01       5    8    1         0.1873831009E+01      0.4504158895E+01
          0                 2           2             4    7     1      -0.7778504647E-01       5    8    1        -0.4263256309E+01      0.1041177564E+02
          0                 3           2             4    7     1      -0.2889176863E-01       4    7    1        -0.1550897280E+01      0.3790945039E+01
          0                 4           2             4    7     1       0.1118520905E-01       4    7    1         0.6171639521E+00      0.1511097670E+01
          0                 5           2             4    7     1      -0.4452350598E-03       4    7    1        -0.2525204654E-01      0.6184158603E-01
          0                 6           1             4    7     1       0.5494015996E-05       4    7    1         0.3202666121E-03      0.7845717697E-03

    ------------------------------------------------
       NWT REQUIRED            6 OUTER ITERATIONS 
       AND A TOTAL OF         11 INNER ITERATIONS.
    ------------------------------------------------

 NO OUTPUT CONTROL FOR STRESS PERIOD   20   TIME STEP   30



 STREAM LISTING     PERIOD     20   STEP       30

 LAYER ROW COL. STREAM  RCH.  FLOW INTO     FLOW TO   FLOW OUT OF   OVRLND.     DIRECT     STREAM       STREAM     STREAM     STREAM   STREAMBED  STREAMBED
                SEG.NO.  NO.  STRM. RCH.    AQUIFER    STRM. RCH.    RUNOFF     PRECIP       ET          HEAD       DEPTH      WIDTH   CONDCTNC.   GRADIENT

   1    1    1     1     1    3.2276E+01  2.7609E-01   3.2000E+01  0.000E+00  0.000E+00  0.000E+00  1.09432E+03  1.269E+00  1.437E+01  6.467E-02  1.423E+00
   1    2    2     1     2    3.2000E+01  4.2738E-01   3.1573E+01  0.000E+00  0.000E+00  0.000E+00  1.08932E+03  1.266E+00  1.431E+01  1.002E-01  1.422E+00
   1    3    3     1     3    3.1573E+01  3.6428E-01   3.1209E+01  0.000E+00  0.000E+00  0.000E+00  1.08368E+03  1.263E+00  1.424E+01  8.546E-02  1.421E+00
   1    3    4     1     4    3.1209E+01  3.3528E-01   3.0873E+01  0.000E+00  0.000E+00  0.000E+00  1.07867E+03  1.259E+00  1.418E+01  7.871E-02  1.420E+00
   1    4    5     2     1    2.8873E+01  3.3633E-01   2.8537E+01  0.000E+00  0.000E+00  0.000E+00  1.07325E+03  1.312E+00  1.200E+01  7.800E-02  1.437E+00
   1    5    6     2     2    2.8537E+01  2.5823E-01   2.8279E+01  0.000E+00  0.000E+00  0.000E+00  1.06781E+03  1.304E+00  1.200E+01  6.000E-02  1.435E+00
   1    6    6     2     3    2.8279E+01  2.5780E-01   2.8021E+01  0.000E+00  0.000E+00  0.000E+00  1.06309E+03  1.297E+00  1.200E+01  6.000E-02  1.432E+00
   1    7    6     2     4    2.8021E+01  2.5737E-01   2.7764E+01  0.000E+00  0.000E+00  0.000E+00  1.05836E+03  1.290E+00  1.200E+01  6.000E-02  1.430E+00
   1    8    6     2     5    2.7764E+01  2.5694E-01   2.7507E+01  0.000E+00  0.000E+00  0.000E+00  1.05364E+03  1.282E+00  1.200E+01  6.000E-02  1.427E+00
   1    3    5     3     1    2.0000E+00  2.8252E-01   1.7175E+00  0.000E+00  0.000E+00  0.000E+00  1.07555E+03  1.909E+00  9.636E+00  7.227E-02  1.955E+00
   1    3    6     3     2    1.7175E+00  2.4905E-01   1.4684E+00  0.000E+00  0.000E+00  0.000E+00  1.07264E+03  1.727E+00  8.909E+00  6.682E-02  1.864E+00
   1    3    7     3     3    1.4684E+00  1.9718E-01   1.2712E+00  0.000E+00  0.000E+00  0.000E+00  1.06987E+03  1.555E+00  8.218E+00  5.547E-02  1.777E+00
   1    4    8     3     4    1.2712E+00  2.2567E-01   1.0456E+00  0.000E+00  0.000E+00  0.000E+00  1.06682E+03  1.364E+00  7.455E+00  6.709E-02  1.682E+00
   1    5    8     3     5    1.0456E+00  1.5790E-01   8.8768E-01  0.000E+00  0.000E+00  0.000E+00  1.06362E+03  1.164E+00  6.655E+00  4.991E-02  1.582E+00
   1    6    8     3     6    8.8768E-01  5.5980E-02   8.3170E-01  0.000E+00  0.000E+00  0.000E+00  1.06158E+03  1.036E+00  6.145E+00  1.844E-02  1.518E+00
   1    5   10     4     1    1.0000E+01  9.0919E-02   9.9091E+00  0.000E+00  0.000E+00  0.000E+00  1.07836E+03  6.368E-01  1.000E+01  2.500E-02  1.212E+00
   1    5    9     4     2    9.9091E+00  1.8158E-01   9.7275E+00  0.000E+00  0.000E+00  0.000E+00  1.07154E+03  6.315E-01  1.000E+01  5.000E-02  1.211E+00
   1    6    8     4     3    9.7275E+00  1.2689E-01   9.6006E+00  0.000E+00  0.000E+00  0.000E+00  1.06381E+03  6.256E-01  1.000E+01  3.500E-02  1.209E+00
   1    6    8     5     1    1.0432E+01  2.2686E-01   1.0205E+01  0.000E+00  0.000E+00  0.000E+00  1.05868E+03  6.790E-01  1.542E+01  6.166E-02  1.226E+00
   1    7    7     5     2    1.0205E+01  2.7894E-01   9.9265E+00  0.000E+00  0.000E+00  0.000E+00  1.05417E+03  6.732E-01  1.519E+01  7.594E-02  1.224E+00
   1    8    7     5     3    9.9265E+00  1.9221E-01   9.7343E+00  0.000E+00  0.000E+00  0.000E+00  1.04992E+03  6.676E-01  1.497E+01  5.241E-02  1.223E+00
   1    8    6     5     4    9.7343E+00  1.3577E-01   9.5985E+00  0.000E+00  0.000E+00  0.000E+00  1.04691E+03  6.637E-01  1.482E+01  3.706E-02  1.221E+00
   1    9    6     6     1    9.5985E+00  2.2097E-01   9.3776E+00  0.000E+00  0.000E+00  0.000E+00  1.04341E+03  6.828E-01  1.200E+01  6.000E-02  1.228E+00
   1   10    7     6     2    9.3776E+00  2.2039E-01   9.1572E+00  0.000E+00  0.000E+00  0.000E+00  1.03885E+03  6.732E-01  1.200E+01  6.000E-02  1.224E+00
   1   11    7     6     3    9.1572E+00  2.1981E-01   8.9374E+00  0.000E+00  0.000E+00  0.000E+00  1.03430E+03  6.636E-01  1.200E+01  6.000E-02  1.221E+00
   1   12    7     6     4    8.9374E+00  2.1923E-01   8.7181E+00  0.000E+00  0.000E+00  0.000E+00  1.02974E+03  6.539E-01  1.200E+01  6.000E-02  1.218E+00
   1   13    7     6     5    8.7181E+00 -1.2932E-01   8.8474E+00  0.000E+00  0.000E+00  0.000E+00  1.02656E+03  6.519E-01  1.200E+01  2.400E-01 -1.796E-01
   1   14    9     7     1    1.5000E+02  1.3361E+00   1.4866E+02  0.000E+00  0.000E+00  0.000E+00  1.03987E+03  2.288E+00  5.529E+01  5.593E-01  7.963E-01
   1   13    8     7     2    1.4866E+02  1.8210E+00   1.4684E+02  0.000E+00  0.000E+00  0.000E+00  1.03478E+03  2.279E+00  5.526E+01  6.148E-01  9.873E-01
   1   13    7     7     3    1.4684E+02  1.4465E+00   1.4540E+02  0.000E+00  0.000E+00  0.000E+00  1.02969E+03  2.271E+00  5.522E+01  5.585E-01  8.634E-01
   1   13    6     8     1    1.5424E+02  8.0353E-01   1.5344E+02  0.000E+00  0.000E+00  0.000E+00  1.02472E+03  2.844E+00  4.123E+01  4.202E-01  6.374E-01
   1   13    5     8     2    1.5344E+02  8.1222E-02   1.5336E+02  0.000E+00  0.000E+00  0.000E+00  1.01847E+03  2.841E+00  4.119E+01  4.197E-01  6.450E-02
   1   13    4     8     3    1.5336E+02 -2.7352E+00   1.5609E+02  0.000E+00  0.000E+00  0.000E+00  1.01222E+03  2.850E+00  4.132E+01  4.211E+00 -2.165E-01
   1   13    3     8     4    1.5609E+02 -3.8010E+00   1.5990E+02  0.000E+00  0.000E+00  0.000E+00  1.00600E+03  2.872E+00  4.165E+01  4.244E+00 -2.985E-01
   1   13    2     8     5    1.5990E+02 -2.6540E+00   1.6255E+02  0.000E+00  0.000E+00  0.000E+00  9.99769E+02  2.894E+00  4.196E+01  4.276E+00 -2.069E-01
   1   13    1     8     6    1.6255E+02 -2.0455E+00   1.6459E+02  0.000E+00  0.000E+00  0.000E+00  9.94785E+02  2.910E+00  4.219E+01  2.580E+00 -2.643E-01
   1    8    6     9     1    2.7507E+01  0.0000E+00   2.7507E+01  0.000E+00  0.000E+00  0.000E+00  1.08291E+03  4.158E+00  4.000E+00  0.000E+00  2.386E+00
   1    8    5     9     2    2.7507E+01  0.0000E+00   2.7507E+01  0.000E+00  0.000E+00  0.000E+00  1.08241E+03  4.158E+00  4.000E+00  0.000E+00  2.386E+00





UNSATURATED ZONE PACKAGE VOLUMETRIC BUDGET FOR  TIME STEP    30 STRESS PERIOD   20
  ------------------------------------------------------------------------------



     CUMULATIVE VOLUMES      L**3       RATES FOR THIS TIME STEP      L**3/T
     ------------------                 ------------------------

           IN:                                      IN:
           ---                                      ---
        INFILTRATION =   697883876.3064          INFILTRATION =          60.8167

          OUT:                                     OUT:
          ----                                     ----
              UZF ET =   691773498.2672                UZF ET =          60.8175
        UZF RECHARGE =       73224.0000          UZF RECHARGE =       0.0000E+00

            IN - OUT =     6037154.0392              IN - OUT =      -7.8964E-04

          STORAGE:                                 STORAGE:
          --------                                 --------
      STORAGE CHANGE =     6037351.7558        STORAGE CHANGE =      -7.8870E-04

 PERCENT DISCREPANCY IS DIFFERENCE BETWEEN IN-OUT MINUS CHANGE IN STORAGE
 DIVIDED BY THE AVERAGE OF IN AND OUT TIMES 100

 PERCENT DISCREPANCY =          -0.00     PERCENT DISCREPANCY =          -0.00






1
  VOLUMETRIC BUDGET FOR AGRICULTURAL FIELDS AT  END OF TIME STEP   30, STRESS PERIOD  20
  ------------------------------------------------------------------------------

     CUMULATIVE VOLUMES      L**3       RATES FOR THIS TIME STEP      L**3/T
     ------------------                 ------------------------

           IN:                                      IN:
           ---                                      ---
               AG WELLS  =   115836720.0000                 AG WELLS  =          32.4619
      DIVERSION SEGMENTS =   539671552.0000        DIVERSION SEGMENTS =          27.5067
       IRRIGATION PONDS  =           0.0000         IRRIGATION PONDS  =           0.0000
           GW IRRIGATION =           0.0000             GW IRRIGATION =           0.0000
           SW IRRIGATION =           0.0000             SW IRRIGATION =           0.0000
        SYSTEM LOSSES GW =           0.0000          SYSTEM LOSSES GW =           0.0000
        SYSTEM LOSSES SW =           0.0000          SYSTEM LOSSES SW =           0.0000

                TOTAL IN =   655508288.0000                  TOTAL IN =          59.9687

          OUT:                                     OUT:
          ----                                     ----
               AG WELLS  =           0.0000                 AG WELLS  =           0.0000
      DIVERSION SEGMENTS =           0.0000        DIVERSION SEGMENTS =           0.0000
       IRRIGATION PONDS  =           0.0000         IRRIGATION PONDS  =           0.0000
           GW IRRIGATION =   115836720.0000             GW IRRIGATION =          32.4619
           SW IRRIGATION =   539682048.0000             SW IRRIGATION =          27.5073
        SYSTEM LOSSES GW =           0.0000          SYSTEM LOSSES GW =           0.0000
        SYSTEM LOSSES SW =           0.0000          SYSTEM LOSSES SW =           0.0000

               TOTAL OUT =   655518784.0000                 TOTAL OUT =          59.9692

                IN - OUT =      -10496.0000                  IN - OUT =      -5.4932E-04

     PERCENT DISCREPANCY =          -0.00         PERCENT DISCREPANCY =          -0.00



1
  VOLUMETRIC BUDGET FOR ENTIRE MODEL AT END OF TIME STEP   30, STRESS PERIOD  20
  ------------------------------------------------------------------------------

     CUMULATIVE VOLUMES      L**3       RATES FOR THIS TIME STEP      L**3/T
     ------------------                 ------------------------

           IN:                                      IN:
           ---                                      ---
             STORAGE     =   168172736.0000               STORAGE     =          32.7272
       CONSTANT HEAD     =           0.0000         CONSTANT HEAD     =           0.0000
     HEAD DEP BOUNDS     =    14303811.0000       HEAD DEP BOUNDS     =           0.2858
      STREAM LEAKAGE     =   600936704.0000        STREAM LEAKAGE     =          11.5399
        UZF RECHARGE     =       73223.9531          UZF RECHARGE     =           0.0000
               GW ET     =           0.0000                 GW ET     =           0.0000
     SURFACE LEAKAGE     =           0.0000       SURFACE LEAKAGE     =           0.0000
           AG WELLS      =           0.0000             AG WELLS      =           0.0000

                TOTAL IN =   783486464.0000                  TOTAL IN =          44.5529

          OUT:                                     OUT:
          ----                                     ----
             STORAGE     =   107246952.0000               STORAGE     =           0.4378
       CONSTANT HEAD     =           0.0000         CONSTANT HEAD     =           0.0000
     HEAD DEP BOUNDS     =    14573600.0000       HEAD DEP BOUNDS     =           0.2880
      STREAM LEAKAGE     =   543506688.0000        STREAM LEAKAGE     =          11.3651
        UZF RECHARGE     =           0.0000          UZF RECHARGE     =           0.0000
               GW ET     =     2326724.7500                 GW ET     =           0.0000
     SURFACE LEAKAGE     =           0.0000       SURFACE LEAKAGE     =           0.0000
           AG WELLS      =   115836720.0000             AG WELLS      =          32.4619

               TOTAL OUT =   783490688.0000                 TOTAL OUT =          44.5528

                IN - OUT =       -4224.0000                  IN - OUT =       3.4332E-05

     PERCENT DISCREPANCY =          -0.00         PERCENT DISCREPANCY =           0.00






         TIME SUMMARY AT END OF TIME STEP   30 IN STRESS PERIOD   20
                    SECONDS     MINUTES      HOURS       DAYS        YEARS
                    -----------------------------------------------------------
   TIME STEP LENGTH  87667.      1461.1      24.352      1.0147     2.77799E-03
 STRESS PERIOD TIME 2.63000E+06  43833.      730.56      30.440     8.33397E-02
         TOTAL TIME 5.00565E+07 8.34276E+05  13905.      579.36      1.5862    
1
1
                            STRESS PERIOD NO.   21, LENGTH =   2630000.    
                            -----------------------------------------------

                              NUMBER OF TIME STEPS =    30

                               MULTIPLIER FOR DELT =     1.000

                            INITIAL TIME STEP SIZE =   87666.66    

 REUSING NON-PARAMETER GHB CELLS FROM LAST STRESS PERIOD

      2 GHB CELLS

 REUSING STREAM SEGMENT DATA FROM LAST STRESS PERIOD



            AREAL INFILTRATION RATE
 READING ON UNIT   19 WITH FORMAT: (FREE)              

            1           2           3           4           5           6           7           8           9          10
 ........................................................................................................................
   1   1.0000E-10  2.0000E-10   0.000       0.000       0.000       0.000       0.000       0.000       0.000       0.000    
   2   2.0000E-10  1.0000E-10  2.0000E-10   0.000       0.000      8.0000E-10  8.0000E-10  5.0000E-10   0.000       0.000    
   3    0.000      5.0000E-10  1.0000E-10  1.0000E-10  8.0000E-10  8.0000E-10  5.0000E-10  5.0000E-10   0.000       0.000    
   4   8.0000E-10  5.0000E-10  1.0000E-10  1.0000E-10  1.0000E-10  1.0000E-10  1.0000E-10  1.0000E-10  2.0000E-10   0.000    
   5   8.0000E-10  5.0000E-10  1.0000E-10  1.0000E-10  1.0000E-10  1.0000E-10  1.0000E-10  1.0000E-10  1.0000E-10  1.0000E-10
   6   8.0000E-10  5.0000E-10  5.0000E-10  2.0000E-10  2.0000E-10  1.0000E-10  1.0000E-10  1.0000E-10  1.0000E-10  5.0000E-10
   7   8.0000E-10  5.0000E-10  5.0000E-10  2.0000E-10  2.0000E-10  1.0000E-10  1.0000E-10  2.0000E-10  2.0000E-10   0.000    
   8    0.000      5.0000E-10  5.0000E-10  2.0000E-10  2.0000E-10  1.0000E-10  1.0000E-10  2.0000E-10  5.0000E-10   0.000    
   9    0.000      5.0000E-10  5.0000E-10  2.0000E-10  2.0000E-10  1.0000E-10  1.0000E-10  2.0000E-10  5.0000E-10   0.000    
  10    0.000      5.0000E-10  5.0000E-10  2.0000E-10  2.0000E-10  1.0000E-10  1.0000E-10  2.0000E-10  5.0000E-10  8.0000E-10
  11    0.000      1.0000E-10  1.0000E-10  1.0000E-10  1.0000E-10  1.0000E-10  1.0000E-10  2.0000E-10  5.0000E-10   0.000    
  12   1.0000E-10  1.0000E-10  1.0000E-10  1.0000E-10  1.0000E-10  1.0000E-10  1.0000E-10  1.0000E-10  2.0000E-10   0.000    
  13   1.0000E-10  1.0000E-10  2.0000E-10  2.0000E-10  2.0000E-10  2.0000E-10  2.0000E-10  1.0000E-10  1.0000E-10   0.000    
  14    0.000      2.0000E-10  5.0000E-10  5.0000E-10  5.0000E-10  5.0000E-10  5.0000E-10  2.0000E-10  1.0000E-10   0.000    
  15    0.000       0.000      8.0000E-10  8.0000E-10  8.0000E-10  8.0000E-10   0.000       0.000       0.000       0.000    

                  ET RATE =  3.250000E-07

 USING ET EXTINCTION DEPTH FROM PREVIOUS STRESS PERIOD. CURRENT PERIOD IS:      21

 USING EXTINCTION WATER CONTENT FROM PREVIOUS STRESS PERIOD. CURRENT PERIOD IS:      21

 USING AIR ENTRY PRESSURE FROM PREVIOUS STRESS PERIOD. CURRENT PERIOD IS:      21

 USING ROOT PRESSURE HEAD FROM PREVIOUS STRESS PERIOD. CURRENT PERIOD IS:      21

 USING ROOT ACTIVITY FROM PREVIOUS STRESS PERIOD. CURRENT PERIOD IS:      21

 PROCESSING AG STRESS PERIOD DATA

 READING AG STRESS PERIOD DATA

 READING IRRIGATION SEGMENT

 READING IRRIGATION WELL

 READING SUPPLEMENTAL WELL

 NO IRRPOND OR REUSING IRRPOND DATA FROM LAST STRESS PERIOD

 END PROCESSING AG STRESS PERIOD DATA OPTIONS
 
 SOLVING FOR HEAD 
                                                   Max.-Head-Change                         Max.-Flux-Residual
  Residual-Control   Outer-Iter.   Inner-Iter.     Column Row Layer    Maximum-Head-Change  Column Row Layer    Maximum-Flux-Residual          L2-NORM 
          0                 1           2             5    6     1       0.3559677428E-01       5    8    1         0.1944195197E+01      0.4568205117E+01
          0                 2           2             4    7     1      -0.1473804644E+00       5    8    1        -0.8001455162E+01      0.1951157225E+02
          0                 3           2             4    7     1       0.1003601315E-01       5    8    1         0.5682748805E+00      0.1369164228E+01
          0                 4           2             4    7     1      -0.3993428692E-03       5    8    1        -0.2324354019E-01      0.5599706299E-01
          0                 5           1             4    7     1       0.4924069578E-05       5    8    1         0.2947116755E-03      0.7100054140E-03

    ------------------------------------------------
       NWT REQUIRED            5 OUTER ITERATIONS 
       AND A TOTAL OF          9 INNER ITERATIONS.
    ------------------------------------------------

 NO OUTPUT CONTROL FOR STRESS PERIOD   21   TIME STEP    1
 
 SOLVING FOR HEAD 
                                                   Max.-Head-Change                         Max.-Flux-Residual
  Residual-Control   Outer-Iter.   Inner-Iter.     Column Row Layer    Maximum-Head-Change  Column Row Layer    Maximum-Flux-Residual          L2-NORM 
          0                 1           2             5    8     1       0.3812051640E-01       5    8    1         0.2083002670E+01      0.4932610695E+01
          0                 2           2             5    6     1      -0.1453324519E-01       5    8    1        -0.8040855266E+00      0.1901235459E+01
          0                 3           2             4    7     1      -0.5976278334E-01       4    7    1        -0.3207911965E+01      0.7882575486E+01
          0                 4           2             4    7     1       0.7364998547E-02       4    7    1         0.4063823915E+00      0.1002933889E+01
          0                 5           2             4    7     1      -0.2931299942E-03       4    7    1        -0.1662538701E-01      0.4155576465E-01
          0                 6           1             7   13     1      -0.5606684774E-05       7   13    1        -0.3301613629E-03      0.6136403357E-03

    ------------------------------------------------
       NWT REQUIRED            6 OUTER ITERATIONS 
       AND A TOTAL OF         11 INNER ITERATIONS.
    ------------------------------------------------

 NO OUTPUT CONTROL FOR STRESS PERIOD   21   TIME STEP    2
 
 SOLVING FOR HEAD 
                                                   Max.-Head-Change                         Max.-Flux-Residual
  Residual-Control   Outer-Iter.   Inner-Iter.     Column Row Layer    Maximum-Head-Change  Column Row Layer    Maximum-Flux-Residual          L2-NORM 
          0                 1           2             5    8     1       0.3827530014E-01       5    8    1         0.2090722241E+01      0.4970083608E+01
          0                 2           2             5    6     1      -0.5113022956E-01       5    8    1        -0.2816210905E+01      0.6841157340E+01
          0                 3           2             4    7     1      -0.2801657484E-01       4    7    1        -0.1503924436E+01      0.3683210429E+01
          0                 4           2             4    7     1       0.2448410182E-01       4    7    1         0.1350935734E+01      0.3308467427E+01
          0                 5           2             4    7     1      -0.9745218883E-03       4    7    1        -0.5527047741E-01      0.1353874042E+00
          0                 6           1             4    7     1       0.1202519301E-04       5    8    1         0.7011478547E-03      0.1717647783E-02

    ------------------------------------------------
       NWT REQUIRED            6 OUTER ITERATIONS 
       AND A TOTAL OF         11 INNER ITERATIONS.
    ------------------------------------------------

 NO OUTPUT CONTROL FOR STRESS PERIOD   21   TIME STEP    3
 
 SOLVING FOR HEAD 
                                                   Max.-Head-Change                         Max.-Flux-Residual
  Residual-Control   Outer-Iter.   Inner-Iter.     Column Row Layer    Maximum-Head-Change  Column Row Layer    Maximum-Flux-Residual          L2-NORM 
          0                 1           2             5    8     1       0.3810203793E-01       5    8    1         0.2080363681E+01      0.4970497656E+01
          0                 2           2             5    7     1      -0.6765788581E-01       5    8    1        -0.3717377908E+01      0.9061221283E+01
          0                 3           2             4    7     1      -0.2738128704E-02       4    7    1        -0.1470978091E+00      0.3688671725E+00
          0                 4           2             4    7     1       0.6411003883E-02       4    7    1         0.3537402207E+00      0.8658386981E+00
          0                 5           2             4    7     1      -0.2552026158E-03       4    7    1        -0.1447422754E-01      0.3543591901E-01
          0                 6           1             4    7     1       0.3149094633E-05       4    7    1         0.1835741809E-03      0.4495860065E-03

    ------------------------------------------------
       NWT REQUIRED            6 OUTER ITERATIONS 
       AND A TOTAL OF         11 INNER ITERATIONS.
    ------------------------------------------------

 NO OUTPUT CONTROL FOR STRESS PERIOD   21   TIME STEP    4
 
 SOLVING FOR HEAD 
                                                   Max.-Head-Change                         Max.-Flux-Residual
  Residual-Control   Outer-Iter.   Inner-Iter.     Column Row Layer    Maximum-Head-Change  Column Row Layer    Maximum-Flux-Residual          L2-NORM 
          0                 1           2             5    8     1       0.3822931047E-01       5    8    1         0.2086635958E+01      0.5003041162E+01
          0                 2           2             5    7     1      -0.7576076847E-01       5    8    1        -0.4155321782E+01      0.1013868069E+02
          0                 3           2             4    7     1      -0.6394947466E+00       4    7    1        -0.3432491184E+02      0.8406900419E+02
          0                 4           2             4    7     1       0.4355105202E-01       5    8    1         0.2402994134E+01      0.5886131259E+01
          0                 5           2             4    7     1      -0.1733359043E-02       5    8    1        -0.9832528410E-01      0.2408430766E+00
          0                 6           1             4    7     1       0.2138891856E-04       5    8    1         0.1247241315E-02      0.3055126677E-02

    ------------------------------------------------
       NWT REQUIRED            6 OUTER ITERATIONS 
       AND A TOTAL OF         11 INNER ITERATIONS.
    ------------------------------------------------

 NO OUTPUT CONTROL FOR STRESS PERIOD   21   TIME STEP    5
 
 SOLVING FOR HEAD 
                                                   Max.-Head-Change                         Max.-Flux-Residual
  Residual-Control   Outer-Iter.   Inner-Iter.     Column Row Layer    Maximum-Head-Change  Column Row Layer    Maximum-Flux-Residual          L2-NORM 
          0                 1           2             5    8     1       0.5731052369E-01       5    8    1         0.3139128872E+01      0.7159763811E+01
          0                 2           2             5    8     1      -0.5574699079E-02       5    8    1        -0.3139092705E+00      0.7178495375E+00
          0                 3           2             5    8     1       0.3796168498E-03       5    8    1         0.2197369264E-01      0.5022409617E-01
          0                 4           1             5    8     1      -0.1510530748E-04       5    8    1        -0.8987251140E-03      0.2052538666E-02

    ------------------------------------------------
       NWT REQUIRED            4 OUTER ITERATIONS 
       AND A TOTAL OF          7 INNER ITERATIONS.
    ------------------------------------------------

 NO OUTPUT CONTROL FOR STRESS PERIOD   21   TIME STEP    6
 
 SOLVING FOR HEAD 
                                                   Max.-Head-Change                         Max.-Flux-Residual
  Residual-Control   Outer-Iter.   Inner-Iter.     Column Row Layer    Maximum-Head-Change  Column Row Layer    Maximum-Flux-Residual          L2-NORM 
          0                 1           2             5    8     1       0.5442488932E-01       5    8    1         0.2978235099E+01      0.6864855302E+01
          0                 2           2             4    7     1      -0.1539121527E+00       5    8    1        -0.8417820143E+01      0.2048402654E+02
          0                 3           2             4    7     1       0.8030861796E-01       5    8    1         0.4442018749E+01      0.1087021589E+02
          0                 4           2             4    7     1      -0.3195591837E-02       5    8    1        -0.1816270676E+00      0.4445836792E+00
          0                 5           1             4    7     1       0.3940297277E-04       5    6    1         0.2298480309E-02      0.5647979871E-02

    ------------------------------------------------
       NWT REQUIRED            5 OUTER ITERATIONS 
       AND A TOTAL OF          9 INNER ITERATIONS.
    ------------------------------------------------

 NO OUTPUT CONTROL FOR STRESS PERIOD   21   TIME STEP    7
 
 SOLVING FOR HEAD 
                                                   Max.-Head-Change                         Max.-Flux-Residual
  Residual-Control   Outer-Iter.   Inner-Iter.     Column Row Layer    Maximum-Head-Change  Column Row Layer    Maximum-Flux-Residual          L2-NORM 
          0                 1           2             5    8     1       0.5404384686E-01       5    8    1         0.2955821903E+01      0.6857943979E+01
          0                 2           2             5    6     1      -0.8279985336E-01       5    8    1        -0.4562717464E+01      0.1107132359E+02
          0                 3           2             4    7     1      -0.6402865658E+00       4    7    1        -0.3436715098E+02      0.8416664790E+02
          0                 4           2             4    7     1       0.4360490234E-01       4    7    1         0.2405927980E+01      0.5892959974E+01
          0                 5           2             4    7     1      -0.1735502344E-02       5    8    1        -0.9843434897E-01      0.2411226810E+00
          0                 6           1             4    7     1       0.2141536584E-04       5    8    1         0.1248626166E-02      0.3058677287E-02

    ------------------------------------------------
       NWT REQUIRED            6 OUTER ITERATIONS 
       AND A TOTAL OF         11 INNER ITERATIONS.
    ------------------------------------------------

 NO OUTPUT CONTROL FOR STRESS PERIOD   21   TIME STEP    8
 
 SOLVING FOR HEAD 
                                                   Max.-Head-Change                         Max.-Flux-Residual
  Residual-Control   Outer-Iter.   Inner-Iter.     Column Row Layer    Maximum-Head-Change  Column Row Layer    Maximum-Flux-Residual          L2-NORM 
          0                 1           2             5    8     1       0.7248606383E-01       5    8    1         0.3972467896E+01      0.8981356676E+01
          0                 2           2             5    8     1      -0.7050839024E-02       5    8    1        -0.3972412700E+00      0.8996624220E+00
          0                 3           2             5    8     1       0.4801418404E-03       5    8    1         0.2780724029E-01      0.6295912949E-01
          0                 4           1             5    8     1      -0.1910528955E-04       5    8    1        -0.1137317452E-02      0.2573884106E-02

    ------------------------------------------------
       NWT REQUIRED            4 OUTER ITERATIONS 
       AND A TOTAL OF          7 INNER ITERATIONS.
    ------------------------------------------------

 NO OUTPUT CONTROL FOR STRESS PERIOD   21   TIME STEP    9
 
 SOLVING FOR HEAD 
                                                   Max.-Head-Change                         Max.-Flux-Residual
  Residual-Control   Outer-Iter.   Inner-Iter.     Column Row Layer    Maximum-Head-Change  Column Row Layer    Maximum-Flux-Residual          L2-NORM 
          0                 1           2             5    8     1       0.6879945275E-01       5    8    1         0.3766856032E+01      0.8608731902E+01
          0                 2           2             5    7     1      -0.1545862417E+00       5    8    1        -0.8496680277E+01      0.2062701663E+02
          0                 3           2             4    7     1       0.8034748945E-01       5    8    1         0.4447545807E+01      0.1088012404E+02
          0                 4           2             4    7     1      -0.3197138356E-02       5    8    1        -0.1818553717E+00      0.4449878666E+00
          0                 5           1             4    7     1       0.3942204240E-04       5    6    1         0.2301395969E-02      0.5652226156E-02

    ------------------------------------------------
       NWT REQUIRED            5 OUTER ITERATIONS 
       AND A TOTAL OF          9 INNER ITERATIONS.
    ------------------------------------------------

 NO OUTPUT CONTROL FOR STRESS PERIOD   21   TIME STEP   10
 
 SOLVING FOR HEAD 
                                                   Max.-Head-Change                         Max.-Flux-Residual
  Residual-Control   Outer-Iter.   Inner-Iter.     Column Row Layer    Maximum-Head-Change  Column Row Layer    Maximum-Flux-Residual          L2-NORM 
          0                 1           2             5    8     1       0.6767194339E-01       5    8    1         0.3702797187E+01      0.8528436744E+01
          0                 2           2             5    6     1      -0.8408895133E-01       5    8    1        -0.4637413158E+01      0.1121066044E+02
          0                 3           2             4    7     1      -0.6402537134E+00       4    7    1        -0.3436506435E+02      0.8415707959E+02
          0                 4           2             4    7     1       0.4360266312E-01       4    7    1         0.2405782070E+01      0.5892291589E+01
          0                 5           2             4    7     1      -0.1735413231E-02       4    7    1        -0.9842220021E-01      0.2410954929E+00
          0                 6           1             4    7     1       0.2141426618E-04       5    8    1         0.1248439615E-02      0.3058336400E-02

    ------------------------------------------------
       NWT REQUIRED            6 OUTER ITERATIONS 
       AND A TOTAL OF         11 INNER ITERATIONS.
    ------------------------------------------------

 NO OUTPUT CONTROL FOR STRESS PERIOD   21   TIME STEP   11
 
 SOLVING FOR HEAD 
                                                   Max.-Head-Change                         Max.-Flux-Residual
  Residual-Control   Outer-Iter.   Inner-Iter.     Column Row Layer    Maximum-Head-Change  Column Row Layer    Maximum-Flux-Residual          L2-NORM 
          0                 1           2             5    8     1       0.8541786874E-01       5    8    1         0.4680617434E+01      0.1058791785E+02
          0                 2           2             5    8     1      -0.8308718371E-02       5    8    1        -0.4680539563E+00      0.1060104739E+01
          0                 3           2             5    8     1       0.5657990803E-03       5    8    1         0.3276415194E-01      0.7419424557E-01
          0                 4           1             5    8     1      -0.2251367002E-04       5    8    1        -0.1340055345E-02      0.3033728385E-02

    ------------------------------------------------
       NWT REQUIRED            4 OUTER ITERATIONS 
       AND A TOTAL OF          7 INNER ITERATIONS.
    ------------------------------------------------

 NO OUTPUT CONTROL FOR STRESS PERIOD   21   TIME STEP   12
 
 SOLVING FOR HEAD 
                                                   Max.-Head-Change                         Max.-Flux-Residual
  Residual-Control   Outer-Iter.   Inner-Iter.     Column Row Layer    Maximum-Head-Change  Column Row Layer    Maximum-Flux-Residual          L2-NORM 
          0                 1           2             5    8     1       0.8108245029E-01       5    8    1         0.4438862138E+01      0.1015120415E+02
          0                 2           2             5    7     1      -0.1554806327E+00       5    8    1        -0.8563878845E+01      0.2075700956E+02
          0                 3           2             4    7     1       0.8038876299E-01       5    8    1         0.4452249726E+01      0.1088911377E+02
          0                 4           2             4    7     1      -0.3198780513E-02       5    8    1        -0.1820494237E+00      0.4453549418E+00
          0                 5           1             4    7     1       0.3944229099E-04       5    6    1         0.2303899437E-02      0.5656111710E-02

    ------------------------------------------------
       NWT REQUIRED            5 OUTER ITERATIONS 
       AND A TOTAL OF          9 INNER ITERATIONS.
    ------------------------------------------------

 NO OUTPUT CONTROL FOR STRESS PERIOD   21   TIME STEP   13
 
 SOLVING FOR HEAD 
                                                   Max.-Head-Change                         Max.-Flux-Residual
  Residual-Control   Outer-Iter.   Inner-Iter.     Column Row Layer    Maximum-Head-Change  Column Row Layer    Maximum-Flux-Residual          L2-NORM 
          0                 1           2             5    8     1       0.7934927048E-01       5    8    1         0.4341085854E+01      0.1000966961E+02
          0                 2           2             5    8     1      -0.8520552682E-01       5    8    1        -0.4701240118E+01      0.1133763823E+02
          0                 3           2             4    7     1      -0.6402194128E+00       4    7    1        -0.3436285044E+02      0.8414838609E+02
          0                 4           2             4    7     1       0.4360032569E-01       4    7    1         0.2405627253E+01      0.5891684041E+01
          0                 5           2             4    7     1      -0.1735320206E-02       4    7    1        -0.9841587755E-01      0.2410707344E+00
          0                 6           1             4    7     1       0.2141311836E-04       5    8    1         0.1248280023E-02      0.3058020317E-02

    ------------------------------------------------
       NWT REQUIRED            6 OUTER ITERATIONS 
       AND A TOTAL OF         11 INNER ITERATIONS.
    ------------------------------------------------

 NO OUTPUT CONTROL FOR STRESS PERIOD   21   TIME STEP   14
 
 SOLVING FOR HEAD 
                                                   Max.-Head-Change                         Max.-Flux-Residual
  Residual-Control   Outer-Iter.   Inner-Iter.     Column Row Layer    Maximum-Head-Change  Column Row Layer    Maximum-Flux-Residual          L2-NORM 
          0                 1           2             5    8     1       0.9652843035E-01       5    8    1         0.5287369946E+01      0.1200978817E+02
          0                 2           2             5    8     1      -0.9389440813E-02       5    8    1        -0.5287269706E+00      0.1202146346E+01
          0                 3           2             5    8     1       0.6393925871E-03       5    8    1         0.3701128593E-01      0.8413975257E-01
          0                 4           1             5    8     1      -0.2544202308E-04       5    8    1        -0.1513763257E-02      0.3440587407E-02

    ------------------------------------------------
       NWT REQUIRED            4 OUTER ITERATIONS 
       AND A TOTAL OF          7 INNER ITERATIONS.
    ------------------------------------------------

 NO OUTPUT CONTROL FOR STRESS PERIOD   21   TIME STEP   15
 
 SOLVING FOR HEAD 
                                                   Max.-Head-Change                         Max.-Flux-Residual
  Residual-Control   Outer-Iter.   Inner-Iter.     Column Row Layer    Maximum-Head-Change  Column Row Layer    Maximum-Flux-Residual          L2-NORM 
          0                 1           2             5    8     1       0.9166438462E-01       5    8    1         0.5016231125E+01      0.1152045915E+02
          0                 2           2             5    6     1      -0.1564430144E+00       5    8    1        -0.8621613716E+01      0.2087554133E+02
          0                 3           2             4    7     1       0.8043153029E-01       5    8    1         0.4456291210E+01      0.1089730368E+02
          0                 4           2             4    7     1      -0.3200482157E-02       5    8    1        -0.1822160665E+00      0.4456895086E+00
          0                 5           1             4    7     1       0.3946327305E-04       5    6    1         0.2306065431E-02      0.5659839366E-02

    ------------------------------------------------
       NWT REQUIRED            5 OUTER ITERATIONS 
       AND A TOTAL OF          9 INNER ITERATIONS.
    ------------------------------------------------

 NO OUTPUT CONTROL FOR STRESS PERIOD   21   TIME STEP   16
 
 SOLVING FOR HEAD 
                                                   Max.-Head-Change                         Max.-Flux-Residual
  Residual-Control   Outer-Iter.   Inner-Iter.     Column Row Layer    Maximum-Head-Change  Column Row Layer    Maximum-Flux-Residual          L2-NORM 
          0                 1           2             5    8     1       0.8943649300E-01       5    8    1         0.4890975256E+01      0.1132813179E+02
          0                 2           2             5    8     1      -0.8618706342E-01       5    8    1        -0.4756227164E+01      0.1145361989E+02
          0                 3           2             4    7     1      -0.6401843454E+00       4    7    1        -0.3436055793E+02      0.8414045648E+02
          0                 4           2             4    7     1       0.4359793638E-01       4    7    1         0.2405466934E+01      0.5891129828E+01
          0                 5           2             4    7     1      -0.1735225115E-02       4    7    1        -0.9840932886E-01      0.2410481620E+00
          0                 6           1             4    7     1       0.2141194510E-04       5    8    1         0.1248142356E-02      0.3057735958E-02

    ------------------------------------------------
       NWT REQUIRED            6 OUTER ITERATIONS 
       AND A TOTAL OF         11 INNER ITERATIONS.
    ------------------------------------------------

 NO OUTPUT CONTROL FOR STRESS PERIOD   21   TIME STEP   17
 
 SOLVING FOR HEAD 
                                                   Max.-Head-Change                         Max.-Flux-Residual
  Residual-Control   Outer-Iter.   Inner-Iter.     Column Row Layer    Maximum-Head-Change  Column Row Layer    Maximum-Flux-Residual          L2-NORM 
          0                 1           2             5    8     1       0.1061510793E+00       5    8    1         0.5811464930E+01      0.1327523260E+02
          0                 2           2             5    8     1      -0.1032543117E-01       5    8    1        -0.5811343199E+00      0.1328584692E+01
          0                 3           2             5    8     1       0.7031303635E-03       5    8    1         0.4067982230E-01      0.9299229124E-01
          0                 4           1             5    8     1      -0.2797820744E-04       5    8    1        -0.1663806503E-02      0.3802903134E-02

    ------------------------------------------------
       NWT REQUIRED            4 OUTER ITERATIONS 
       AND A TOTAL OF          7 INNER ITERATIONS.
    ------------------------------------------------

 NO OUTPUT CONTROL FOR STRESS PERIOD   21   TIME STEP   18
 
 SOLVING FOR HEAD 
                                                   Max.-Head-Change                         Max.-Flux-Residual
  Residual-Control   Outer-Iter.   Inner-Iter.     Column Row Layer    Maximum-Head-Change  Column Row Layer    Maximum-Flux-Residual          L2-NORM 
          0                 1           2             5    8     1       0.1008533034E+00       5    8    1         0.5516270276E+01      0.1274230455E+02
          0                 2           2             5    6     1      -0.1573338740E+00       5    8    1        -0.8671615672E+01      0.2098395162E+02
          0                 3           2             4    7     1       0.8047505448E-01       5    8    1         0.4459791405E+01      0.1090479248E+02
          0                 4           2             4    7     1      -0.3202213959E-02       5    8    1        -0.1823603192E+00      0.4459956760E+00
          0                 5           1             4    7     1       0.3948462744E-04       5    6    1         0.2307952071E-02      0.5663278583E-02

    ------------------------------------------------
       NWT REQUIRED            5 OUTER ITERATIONS 
       AND A TOTAL OF          9 INNER ITERATIONS.
    ------------------------------------------------

 NO OUTPUT CONTROL FOR STRESS PERIOD   21   TIME STEP   19
 
 SOLVING FOR HEAD 
                                                   Max.-Head-Change                         Max.-Flux-Residual
  Residual-Control   Outer-Iter.   Inner-Iter.     Column Row Layer    Maximum-Head-Change  Column Row Layer    Maximum-Flux-Residual          L2-NORM 
          0                 1           2             5    8     1       0.9821865226E-01       5    8    1         0.5368469520E+01      0.1250747249E+02
          0                 2           2             5    8     1      -0.8704167235E-01       5    8    1        -0.4803974757E+01      0.1155982343E+02
          0                 3           2             4    7     1      -0.6401490596E+00       4    7    1        -0.3435822627E+02      0.8413319736E+02
          0                 4           2             4    7     1       0.4359553248E-01       4    7    1         0.2405303872E+01      0.5890622350E+01
          0                 5           2             4    7     1      -0.1735129442E-02       4    7    1        -0.9840266703E-01      0.2410274816E+00
          0                 6           1             4    7     1       0.2141076468E-04       5    8    1         0.1248022658E-02      0.3057475292E-02

    ------------------------------------------------
       NWT REQUIRED            6 OUTER ITERATIONS 
       AND A TOTAL OF         11 INNER ITERATIONS.
    ------------------------------------------------

 NO OUTPUT CONTROL FOR STRESS PERIOD   21   TIME STEP   20
 
 SOLVING FOR HEAD 
                                                   Max.-Head-Change                         Max.-Flux-Residual
  Residual-Control   Outer-Iter.   Inner-Iter.     Column Row Layer    Maximum-Head-Change  Column Row Layer    Maximum-Flux-Residual          L2-NORM 
          0                 1           2             5    8     1       0.1145503714E+00       5    8    1         0.6267744447E+01      0.1440739175E+02
          0                 2           2             5    8     1      -0.1114242394E-01       5    8    1        -0.6267602387E+00      0.1441719746E+01
          0                 3           2             5    8     1       0.7587648290E-03       5    8    1         0.4387365723E-01      0.1009129845E+00
          0                 4           1             5    8     1      -0.3019195347E-04       5    8    1        -0.1794434444E-02      0.4126797528E-02

    ------------------------------------------------
       NWT REQUIRED            4 OUTER ITERATIONS 
       AND A TOTAL OF          7 INNER ITERATIONS.
    ------------------------------------------------

 NO OUTPUT CONTROL FOR STRESS PERIOD   21   TIME STEP   21
 
 SOLVING FOR HEAD 
                                                   Max.-Head-Change                         Max.-Flux-Residual
  Residual-Control   Outer-Iter.   Inner-Iter.     Column Row Layer    Maximum-Head-Change  Column Row Layer    Maximum-Flux-Residual          L2-NORM 
          0                 1           2             5    8     1       0.1088945736E+00       5    8    1         0.5952736460E+01      0.1383832060E+02
          0                 2           2             5    6     1      -0.1581188868E+00       5    8    1        -0.8715260426E+01      0.2108340602E+02
          0                 3           2             4    7     1       0.8051874624E-01       5    8    1         0.4462846606E+01      0.1091166360E+02
          0                 4           2             4    7     1      -0.3203952460E-02       5    8    1        -0.1824861694E+00      0.4462766319E+00
          0                 5           1             4    7     1       0.3950606372E-04       5    6    1         0.2309606091E-02      0.5666481064E-02

    ------------------------------------------------
       NWT REQUIRED            5 OUTER ITERATIONS 
       AND A TOTAL OF          9 INNER ITERATIONS.
    ------------------------------------------------

 NO OUTPUT CONTROL FOR STRESS PERIOD   21   TIME STEP   22
 
 SOLVING FOR HEAD 
                                                   Max.-Head-Change                         Max.-Flux-Residual
  Residual-Control   Outer-Iter.   Inner-Iter.     Column Row Layer    Maximum-Head-Change  Column Row Layer    Maximum-Flux-Residual          L2-NORM 
          0                 1           2             5    8     1       0.1059232357E+00       5    8    1         0.5786314814E+01      0.1356788695E+02
          0                 2           2             5    8     1      -0.8779148376E-01       5    8    1        -0.4845757538E+01      0.1165733840E+02
          0                 3           2             4    7     1      -0.6401139871E+00       4    7    1        -0.3435588693E+02      0.8412652904E+02
          0                 4           2             4    7     1       0.4359314334E-01       4    7    1         0.2405140267E+01      0.5890156061E+01
          0                 5           2             4    7     1      -0.1735034355E-02       4    7    1        -0.9839598209E-01      0.2410084692E+00
          0                 6           1             4    7     1       0.2140959109E-04       4    7    1         0.1247924671E-02      0.3057235922E-02

    ------------------------------------------------
       NWT REQUIRED            6 OUTER ITERATIONS 
       AND A TOTAL OF         11 INNER ITERATIONS.
    ------------------------------------------------

 NO OUTPUT CONTROL FOR STRESS PERIOD   21   TIME STEP   23
 
 SOLVING FOR HEAD 
                                                   Max.-Head-Change                         Max.-Flux-Residual
  Residual-Control   Outer-Iter.   Inner-Iter.     Column Row Layer    Maximum-Head-Change  Column Row Layer    Maximum-Flux-Residual          L2-NORM 
          0                 1           2             5    8     1       0.1219367957E+00       5    8    1         0.6667996149E+01      0.1542585509E+02
          0                 2           2             5    8     1      -0.1186089413E-01       5    8    1        -0.6667835041E+00      0.1543502384E+01
          0                 3           2             5    8     1       0.8076902540E-03       5    8    1         0.4667530504E-01      0.1080388073E+00
          0                 4           1             5    8     1      -0.3213874070E-04       5    8    1        -0.1909021915E-02      0.4418378355E-02

    ------------------------------------------------
       NWT REQUIRED            4 OUTER ITERATIONS 
       AND A TOTAL OF          7 INNER ITERATIONS.
    ------------------------------------------------

 NO OUTPUT CONTROL FOR STRESS PERIOD   21   TIME STEP   24
 
 SOLVING FOR HEAD 
                                                   Max.-Head-Change                         Max.-Flux-Residual
  Residual-Control   Outer-Iter.   Inner-Iter.     Column Row Layer    Maximum-Head-Change  Column Row Layer    Maximum-Flux-Residual          L2-NORM 
          0                 1           2             5    8     1       0.1159837731E+00       5    8    1         0.6336575167E+01      0.1482672145E+02
          0                 2           2             5    6     1      -0.1588150381E+00       5    8    1        -0.8753642541E+01      0.2117491802E+02
          0                 3           2             4    7     1       0.8056214444E-01       5    8    1         0.4465533427E+01      0.1091798860E+02
          0                 4           2             4    7     1      -0.3205679306E-02       5    8    1        -0.1825967892E+00      0.4465353301E+00
          0                 5           1             4    7     1       0.3952735673E-04       5    6    1         0.2311065407E-02      0.5669467609E-02

    ------------------------------------------------
       NWT REQUIRED            5 OUTER ITERATIONS 
       AND A TOTAL OF          9 INNER ITERATIONS.
    ------------------------------------------------

 NO OUTPUT CONTROL FOR STRESS PERIOD   21   TIME STEP   25
 
 SOLVING FOR HEAD 
                                                   Max.-Head-Change                         Max.-Flux-Residual
  Residual-Control   Outer-Iter.   Inner-Iter.     Column Row Layer    Maximum-Head-Change  Column Row Layer    Maximum-Flux-Residual          L2-NORM 
          0                 1           2             5    8     1       0.1127322630E+00       5    8    1         0.6154691332E+01      0.1452634027E+02
          0                 2           2             5    8     1      -0.8845420382E-01       5    8    1        -0.4882593539E+01      0.1174712307E+02
          0                 3           2             4    7     1      -0.6400794620E+00       4    7    1        -0.3435356460E+02      0.8412038358E+02
          0                 4           2             4    7     1       0.4359079168E-01       4    7    1         0.2404977846E+01      0.5889726230E+01
          0                 5           2             4    7     1      -0.1734940759E-02       4    7    1        -0.9838934474E-01      0.2409909337E+00
          0                 6           1             4    7     1       0.2140843620E-04       4    7    1         0.1247840597E-02      0.3057015933E-02

    ------------------------------------------------
       NWT REQUIRED            6 OUTER ITERATIONS 
       AND A TOTAL OF         11 INNER ITERATIONS.
    ------------------------------------------------

 NO OUTPUT CONTROL FOR STRESS PERIOD   21   TIME STEP   26
 
 SOLVING FOR HEAD 
                                                   Max.-Head-Change                         Max.-Flux-Residual
  Residual-Control   Outer-Iter.   Inner-Iter.     Column Row Layer    Maximum-Head-Change  Column Row Layer    Maximum-Flux-Residual          L2-NORM 
          0                 1           2             5    8     1       0.1284799118E+00       5    8    1         0.7021697436E+01      0.1634687516E+02
          0                 2           2             5    8     1      -0.1249733533E-01       5    8    1        -0.7021518596E+00      0.1635552946E+01
          0                 3           2             5    8     1       0.8510297900E-03       5    8    1         0.4915110776E-01      0.1144830312E+00
          0                 4           1             5    8     1      -0.3386326016E-04       5    8    1        -0.2010282322E-02      0.4681947668E-02

    ------------------------------------------------
       NWT REQUIRED            4 OUTER ITERATIONS 
       AND A TOTAL OF          7 INNER ITERATIONS.
    ------------------------------------------------

 NO OUTPUT CONTROL FOR STRESS PERIOD   21   TIME STEP   27
 
 SOLVING FOR HEAD 
                                                   Max.-Head-Change                         Max.-Flux-Residual
  Residual-Control   Outer-Iter.   Inner-Iter.     Column Row Layer    Maximum-Head-Change  Column Row Layer    Maximum-Flux-Residual          L2-NORM 
          0                 1           2             5    8     1       0.1222782906E+00       5    8    1         0.6676578302E+01      0.1572263915E+02
          0                 2           2             5    6     1      -0.1594361390E+00       5    8    1        -0.8787641213E+01      0.2125936742E+02
          0                 3           2             4    7     1       0.8060489199E-01       5    8    1         0.4467913409E+01      0.1092382930E+02
          0                 4           2             4    7     1      -0.3207380282E-02       5    8    1        -0.1826947258E+00      0.4467743145E+00
          0                 5           1             4    7     1       0.3954833084E-04       5    6    1         0.2312360778E-02      0.5672272396E-02

    ------------------------------------------------
       NWT REQUIRED            5 OUTER ITERATIONS 
       AND A TOTAL OF          9 INNER ITERATIONS.
    ------------------------------------------------

 NO OUTPUT CONTROL FOR STRESS PERIOD   21   TIME STEP   28
 
 SOLVING FOR HEAD 
                                                   Max.-Head-Change                         Max.-Flux-Residual
  Residual-Control   Outer-Iter.   Inner-Iter.     Column Row Layer    Maximum-Head-Change  Column Row Layer    Maximum-Flux-Residual          L2-NORM 
          0                 1           2             5    8     1       0.1187920478E+00       5    8    1         0.6481767763E+01      0.1539692251E+02
          0                 2           2             5    6     1      -0.8905129001E-01       5    8    1        -0.4915299634E+01      0.1183001713E+02
          0                 3           2             4    7     1      -0.6400457369E+00       4    7    1        -0.3435127831E+02      0.8411470284E+02
          0                 4           2             4    7     1       0.4358849465E-01       4    7    1         0.2404817939E+01      0.5889328810E+01
          0                 5           2             4    7     1      -0.1734849337E-02       4    7    1        -0.9838280951E-01      0.2409747123E+00
          0                 6           1             4    7     1       0.2140730809E-04       4    7    1         0.1247757784E-02      0.3056808978E-02

    ------------------------------------------------
       NWT REQUIRED            6 OUTER ITERATIONS 
       AND A TOTAL OF         11 INNER ITERATIONS.
    ------------------------------------------------

 NO OUTPUT CONTROL FOR STRESS PERIOD   21   TIME STEP   29
 
 SOLVING FOR HEAD 
                                                   Max.-Head-Change                         Max.-Flux-Residual
  Residual-Control   Outer-Iter.   Inner-Iter.     Column Row Layer    Maximum-Head-Change  Column Row Layer    Maximum-Flux-Residual          L2-NORM 
          0                 1           2             5    8     1       0.1343161247E+00       5    8    1         0.7336458791E+01      0.1718386837E+02
          0                 2           2             5    8     1      -0.1306501599E-01       5    8    1        -0.7336263521E+00      0.1719210019E+01
          0                 3           2             5    8     1       0.8896869708E-03       5    8    1         0.5135433873E-01      0.1203395507E+00
          0                 4           1             5    8     1      -0.3540146484E-04       5    8    1        -0.2100394519E-02      0.4921528203E-02

    ------------------------------------------------
       NWT REQUIRED            4 OUTER ITERATIONS 
       AND A TOTAL OF          7 INNER ITERATIONS.
    ------------------------------------------------

 NO OUTPUT CONTROL FOR STRESS PERIOD   21   TIME STEP   30



 STREAM LISTING     PERIOD     21   STEP       30

 LAYER ROW COL. STREAM  RCH.  FLOW INTO     FLOW TO   FLOW OUT OF   OVRLND.     DIRECT     STREAM       STREAM     STREAM     STREAM   STREAMBED  STREAMBED
                SEG.NO.  NO.  STRM. RCH.    AQUIFER    STRM. RCH.    RUNOFF     PRECIP       ET          HEAD       DEPTH      WIDTH   CONDCTNC.   GRADIENT

   1    1    1     1     1    2.7750E+01  2.5751E-01   2.7493E+01  0.000E+00  0.000E+00  0.000E+00  1.09427E+03  1.218E+00  1.357E+01  6.105E-02  1.406E+00
   1    2    2     1     2    2.7493E+01  3.9833E-01   2.7095E+01  0.000E+00  0.000E+00  0.000E+00  1.08927E+03  1.213E+00  1.351E+01  9.454E-02  1.404E+00
   1    3    3     1     3    2.7095E+01  3.3924E-01   2.6755E+01  0.000E+00  0.000E+00  0.000E+00  1.08363E+03  1.208E+00  1.344E+01  8.062E-02  1.403E+00
   1    3    4     1     4    2.6755E+01  3.1201E-01   2.6443E+01  0.000E+00  0.000E+00  0.000E+00  1.07861E+03  1.203E+00  1.337E+01  7.423E-02  1.401E+00
   1    4    5     2     1    2.4443E+01  3.2655E-01   2.4117E+01  0.000E+00  0.000E+00  0.000E+00  1.07312E+03  1.187E+00  1.200E+01  7.800E-02  1.396E+00
   1    5    6     2     2    2.4117E+01  2.5069E-01   2.3866E+01  0.000E+00  0.000E+00  0.000E+00  1.06769E+03  1.178E+00  1.200E+01  6.000E-02  1.393E+00
   1    6    6     2     3    2.3866E+01  2.5024E-01   2.3616E+01  0.000E+00  0.000E+00  0.000E+00  1.06296E+03  1.171E+00  1.200E+01  6.000E-02  1.390E+00
   1    7    6     2     4    2.3616E+01  2.4980E-01   2.3366E+01  0.000E+00  0.000E+00  0.000E+00  1.05824E+03  1.163E+00  1.200E+01  6.000E-02  1.388E+00
   1    8    6     2     5    2.3366E+01  2.4935E-01   2.3117E+01  0.000E+00  0.000E+00  0.000E+00  1.05351E+03  1.156E+00  1.200E+01  6.000E-02  1.385E+00
   1    3    5     3     1    2.0000E+00  2.8252E-01   1.7175E+00  0.000E+00  0.000E+00  0.000E+00  1.07555E+03  1.909E+00  9.636E+00  7.227E-02  1.955E+00
   1    3    6     3     2    1.7175E+00  2.4905E-01   1.4684E+00  0.000E+00  0.000E+00  0.000E+00  1.07264E+03  1.727E+00  8.909E+00  6.682E-02  1.864E+00
   1    3    7     3     3    1.4684E+00  1.9718E-01   1.2712E+00  0.000E+00  0.000E+00  0.000E+00  1.06987E+03  1.555E+00  8.218E+00  5.547E-02  1.777E+00
   1    4    8     3     4    1.2712E+00  2.2567E-01   1.0456E+00  0.000E+00  0.000E+00  0.000E+00  1.06682E+03  1.364E+00  7.455E+00  6.709E-02  1.682E+00
   1    5    8     3     5    1.0456E+00  1.5790E-01   8.8768E-01  0.000E+00  0.000E+00  0.000E+00  1.06362E+03  1.164E+00  6.655E+00  4.991E-02  1.582E+00
   1    6    8     3     6    8.8768E-01  5.5980E-02   8.3170E-01  0.000E+00  0.000E+00  0.000E+00  1.06158E+03  1.036E+00  6.145E+00  1.844E-02  1.518E+00
   1    5   10     4     1    1.0000E+01  9.0919E-02   9.9091E+00  0.000E+00  0.000E+00  0.000E+00  1.07836E+03  6.368E-01  1.000E+01  2.500E-02  1.212E+00
   1    5    9     4     2    9.9091E+00  1.8158E-01   9.7275E+00  0.000E+00  0.000E+00  0.000E+00  1.07154E+03  6.315E-01  1.000E+01  5.000E-02  1.211E+00
   1    6    8     4     3    9.7275E+00  1.2689E-01   9.6006E+00  0.000E+00  0.000E+00  0.000E+00  1.06381E+03  6.256E-01  1.000E+01  3.500E-02  1.209E+00
   1    6    8     5     1    1.0432E+01  2.2686E-01   1.0205E+01  0.000E+00  0.000E+00  0.000E+00  1.05868E+03  6.790E-01  1.542E+01  6.166E-02  1.226E+00
   1    7    7     5     2    1.0205E+01  2.7894E-01   9.9265E+00  0.000E+00  0.000E+00  0.000E+00  1.05417E+03  6.732E-01  1.519E+01  7.594E-02  1.224E+00
   1    8    7     5     3    9.9265E+00  1.9221E-01   9.7343E+00  0.000E+00  0.000E+00  0.000E+00  1.04992E+03  6.676E-01  1.497E+01  5.241E-02  1.223E+00
   1    8    6     5     4    9.7343E+00  1.3577E-01   9.5985E+00  0.000E+00  0.000E+00  0.000E+00  1.04691E+03  6.637E-01  1.482E+01  3.706E-02  1.221E+00
   1    9    6     6     1    3.2715E+01  2.6588E-01   3.2449E+01  0.000E+00  0.000E+00  0.000E+00  1.04416E+03  1.431E+00  1.200E+01  6.000E-02  1.477E+00
   1   10    7     6     2    3.2449E+01  2.6546E-01   3.2184E+01  0.000E+00  0.000E+00  0.000E+00  1.03961E+03  1.424E+00  1.200E+01  6.000E-02  1.475E+00
   1   11    7     6     3    3.2184E+01  2.6504E-01   3.1919E+01  0.000E+00  0.000E+00  0.000E+00  1.03505E+03  1.417E+00  1.200E+01  6.000E-02  1.472E+00
   1   12    7     6     4    3.1919E+01  2.6462E-01   3.1654E+01  0.000E+00  0.000E+00  0.000E+00  1.03050E+03  1.410E+00  1.200E+01  6.000E-02  1.470E+00
   1   13    7     6     5    3.1654E+01  5.4249E-03   3.1649E+01  0.000E+00  0.000E+00  0.000E+00  1.02732E+03  1.407E+00  1.200E+01  2.400E-02  7.535E-02
   1   14    9     7     1    1.5000E+02  1.3361E+00   1.4866E+02  0.000E+00  0.000E+00  0.000E+00  1.03987E+03  2.288E+00  5.529E+01  5.593E-01  7.963E-01
   1   13    8     7     2    1.4866E+02  1.8252E+00   1.4684E+02  0.000E+00  0.000E+00  0.000E+00  1.03478E+03  2.279E+00  5.526E+01  6.148E-01  9.896E-01
   1   13    7     7     3    1.4684E+02  1.4521E+00   1.4539E+02  0.000E+00  0.000E+00  0.000E+00  1.02969E+03  2.271E+00  5.522E+01  5.585E-01  8.667E-01
   1   13    6     8     1    1.7704E+02  9.1948E-01   1.7612E+02  0.000E+00  0.000E+00  0.000E+00  1.02487E+03  2.995E+00  4.342E+01  4.425E-01  6.927E-01
   1   13    5     8     2    1.7612E+02  1.5778E-01   1.7596E+02  0.000E+00  0.000E+00  0.000E+00  1.01862E+03  2.991E+00  4.337E+01  4.420E-01  1.190E-01
   1   13    4     8     3    1.7596E+02 -2.3145E+00   1.7827E+02  0.000E+00  0.000E+00  0.000E+00  1.01237E+03  2.998E+00  4.347E+01  4.430E+00 -1.742E-01
   1   13    3     8     4    1.7827E+02 -3.4451E+00   1.8172E+02  0.000E+00  0.000E+00  0.000E+00  1.00614E+03  3.016E+00  4.373E+01  4.457E+00 -2.577E-01
   1   13    2     8     5    1.8172E+02 -2.2662E+00   1.8398E+02  0.000E+00  0.000E+00  0.000E+00  9.99909E+02  3.034E+00  4.399E+01  4.483E+00 -1.685E-01
   1   13    1     8     6    1.8398E+02 -1.7941E+00   1.8578E+02  0.000E+00  0.000E+00  0.000E+00  9.94922E+02  3.047E+00  4.418E+01  2.701E+00 -2.214E-01
   1    8    6     9     1    3.4136E-06  0.0000E+00   3.4136E-06  0.000E+00  0.000E+00  0.000E+00  1.07875E+03  2.987E-04  4.000E+00  0.000E+00  1.000E+00
   1    8    5     9     2    3.4136E-06  0.0000E+00   3.4136E-06  0.000E+00  0.000E+00  0.000E+00  1.07825E+03  2.987E-04  4.000E+00  0.000E+00  1.000E+00





UNSATURATED ZONE PACKAGE VOLUMETRIC BUDGET FOR  TIME STEP    30 STRESS PERIOD   21
  ------------------------------------------------------------------------------



     CUMULATIVE VOLUMES      L**3       RATES FOR THIS TIME STEP      L**3/T
     ------------------                 ------------------------

           IN:                                      IN:
           ---                                      ---
        INFILTRATION =   954301388.1015          INFILTRATION =           0.8475

          OUT:                                     OUT:
          ----                                     ----
              UZF ET =   822283212.5186                UZF ET =          49.7638
        UZF RECHARGE =       73224.0000          UZF RECHARGE =       0.0000E+00

            IN - OUT =   131944951.5829              IN - OUT =         -48.9163

          STORAGE:                                 STORAGE:
          --------                                 --------
      STORAGE CHANGE =   131946228.2903        STORAGE CHANGE =         -48.9149

 PERCENT DISCREPANCY IS DIFFERENCE BETWEEN IN-OUT MINUS CHANGE IN STORAGE
 DIVIDED BY THE AVERAGE OF IN AND OUT TIMES 100

 PERCENT DISCREPANCY =          -0.00     PERCENT DISCREPANCY =          -0.00






1
  VOLUMETRIC BUDGET FOR AGRICULTURAL FIELDS AT  END OF TIME STEP   30, STRESS PERIOD  21
  ------------------------------------------------------------------------------

     CUMULATIVE VOLUMES      L**3       RATES FOR THIS TIME STEP      L**3/T
     ------------------                 ------------------------

           IN:                                      IN:
           ---                                      ---
               AG WELLS  =   327466560.0000                 AG WELLS  =           0.0000
      DIVERSION SEGMENTS =   582229312.0000        DIVERSION SEGMENTS =       3.4136E-06
       IRRIGATION PONDS  =           0.0000         IRRIGATION PONDS  =           0.0000
           GW IRRIGATION =           0.0000             GW IRRIGATION =           0.0000
           SW IRRIGATION =           0.0000             SW IRRIGATION =           0.0000
        SYSTEM LOSSES GW =           0.0000          SYSTEM LOSSES GW =           0.0000
        SYSTEM LOSSES SW =           0.0000          SYSTEM LOSSES SW =           0.0000

                TOTAL IN =   909695872.0000                  TOTAL IN =       3.4136E-06

          OUT:                                     OUT:
          ----                                     ----
               AG WELLS  =           0.0000                 AG WELLS  =           0.0000
      DIVERSION SEGMENTS =           0.0000        DIVERSION SEGMENTS =           0.0000
       IRRIGATION PONDS  =           0.0000         IRRIGATION PONDS  =           0.0000
           GW IRRIGATION =   327466560.0000             GW IRRIGATION =           0.0000
           SW IRRIGATION =   582241152.0000             SW IRRIGATION =       3.4137E-06
        SYSTEM LOSSES GW =           0.0000          SYSTEM LOSSES GW =           0.0000
        SYSTEM LOSSES SW =           0.0000          SYSTEM LOSSES SW =           0.0000

               TOTAL OUT =   909707712.0000                 TOTAL OUT =       3.4137E-06

                IN - OUT =      -11840.0000                  IN - OUT =      -6.8212E-11

     PERCENT DISCREPANCY =          -0.00         PERCENT DISCREPANCY =          -0.00



1
  VOLUMETRIC BUDGET FOR ENTIRE MODEL AT END OF TIME STEP   30, STRESS PERIOD  21
  ------------------------------------------------------------------------------

     CUMULATIVE VOLUMES      L**3       RATES FOR THIS TIME STEP      L**3/T
     ------------------                 ------------------------

           IN:                                      IN:
           ---                                      ---
             STORAGE     =   401985952.0000               STORAGE     =          34.1921
       CONSTANT HEAD     =           0.0000         CONSTANT HEAD     =           0.0000
     HEAD DEP BOUNDS     =    15055401.0000       HEAD DEP BOUNDS     =           0.2858
      STREAM LEAKAGE     =   631254272.0000        STREAM LEAKAGE     =          11.7922
        UZF RECHARGE     =       73223.9531          UZF RECHARGE     =           0.0000
               GW ET     =           0.0000                 GW ET     =           0.0000
     SURFACE LEAKAGE     =           0.0000       SURFACE LEAKAGE     =           0.0000
           AG WELLS      =           0.0000             AG WELLS      =           0.0000

                TOTAL IN =  1048368832.0000                  TOTAL IN =          46.2701

          OUT:                                     OUT:
          ----                                     ----
             STORAGE     =   130937528.0000               STORAGE     =          36.1620
       CONSTANT HEAD     =           0.0000         CONSTANT HEAD     =           0.0000
     HEAD DEP BOUNDS     =    15331075.0000       HEAD DEP BOUNDS     =           0.2883
      STREAM LEAKAGE     =   572310912.0000        STREAM LEAKAGE     =           9.8198
        UZF RECHARGE     =           0.0000          UZF RECHARGE     =           0.0000
               GW ET     =     2326724.7500                 GW ET     =           0.0000
     SURFACE LEAKAGE     =           0.0000       SURFACE LEAKAGE     =           0.0000
           AG WELLS      =   327466560.0000             AG WELLS      =           0.0000

               TOTAL OUT =  1048372800.0000                 TOTAL OUT =          46.2700

                IN - OUT =       -3968.0000                  IN - OUT =       1.1444E-05

     PERCENT DISCREPANCY =          -0.00         PERCENT DISCREPANCY =           0.00






         TIME SUMMARY AT END OF TIME STEP   30 IN STRESS PERIOD   21
                    SECONDS     MINUTES      HOURS       DAYS        YEARS
                    -----------------------------------------------------------
   TIME STEP LENGTH  87667.      1461.1      24.352      1.0147     2.77799E-03
 STRESS PERIOD TIME 2.63000E+06  43833.      730.56      30.440     8.33397E-02
         TOTAL TIME 5.26866E+07 8.78110E+05  14635.      609.80      1.6695    
1
1
                            STRESS PERIOD NO.   22, LENGTH =   2630000.    
                            -----------------------------------------------

                              NUMBER OF TIME STEPS =    30

                               MULTIPLIER FOR DELT =     1.000

                            INITIAL TIME STEP SIZE =   87666.66    

 REUSING NON-PARAMETER GHB CELLS FROM LAST STRESS PERIOD

      2 GHB CELLS

 REUSING STREAM SEGMENT DATA FROM LAST STRESS PERIOD



            AREAL INFILTRATION RATE
 READING ON UNIT   19 WITH FORMAT: (FREE)              

            1           2           3           4           5           6           7           8           9          10
 ........................................................................................................................
   1   1.0000E-10  2.0000E-10   0.000       0.000       0.000       0.000       0.000       0.000       0.000       0.000    
   2   2.0000E-10  1.0000E-10  2.0000E-10   0.000       0.000      8.0000E-10  8.0000E-10  5.0000E-10   0.000       0.000    
   3    0.000      5.0000E-10  1.0000E-10  1.0000E-10  8.0000E-10  8.0000E-10  5.0000E-10  5.0000E-10   0.000       0.000    
   4   8.0000E-10  5.0000E-10  1.0000E-10  1.0000E-10  1.0000E-10  1.0000E-10  1.0000E-10  1.0000E-10  2.0000E-10   0.000    
   5   8.0000E-10  5.0000E-10  1.0000E-10  1.0000E-10  1.0000E-10  1.0000E-10  1.0000E-10  1.0000E-10  1.0000E-10  1.0000E-10
   6   8.0000E-10  5.0000E-10  5.0000E-10  2.0000E-10  2.0000E-10  1.0000E-10  1.0000E-10  1.0000E-10  1.0000E-10  5.0000E-10
   7   8.0000E-10  5.0000E-10  5.0000E-10  2.0000E-10  2.0000E-10  1.0000E-10  1.0000E-10  2.0000E-10  2.0000E-10   0.000    
   8    0.000      5.0000E-10  5.0000E-10  2.0000E-10  2.0000E-10  1.0000E-10  1.0000E-10  2.0000E-10  5.0000E-10   0.000    
   9    0.000      5.0000E-10  5.0000E-10  2.0000E-10  2.0000E-10  1.0000E-10  1.0000E-10  2.0000E-10  5.0000E-10   0.000    
  10    0.000      5.0000E-10  5.0000E-10  2.0000E-10  2.0000E-10  1.0000E-10  1.0000E-10  2.0000E-10  5.0000E-10  8.0000E-10
  11    0.000      1.0000E-10  1.0000E-10  1.0000E-10  1.0000E-10  1.0000E-10  1.0000E-10  2.0000E-10  5.0000E-10   0.000    
  12   1.0000E-10  1.0000E-10  1.0000E-10  1.0000E-10  1.0000E-10  1.0000E-10  1.0000E-10  1.0000E-10  2.0000E-10   0.000    
  13   1.0000E-10  1.0000E-10  2.0000E-10  2.0000E-10  2.0000E-10  2.0000E-10  2.0000E-10  1.0000E-10  1.0000E-10   0.000    
  14    0.000      2.0000E-10  5.0000E-10  5.0000E-10  5.0000E-10  5.0000E-10  5.0000E-10  2.0000E-10  1.0000E-10   0.000    
  15    0.000       0.000      8.0000E-10  8.0000E-10  8.0000E-10  8.0000E-10   0.000       0.000       0.000       0.000    

                  ET RATE =  7.500000E-08

 USING ET EXTINCTION DEPTH FROM PREVIOUS STRESS PERIOD. CURRENT PERIOD IS:      22

 USING EXTINCTION WATER CONTENT FROM PREVIOUS STRESS PERIOD. CURRENT PERIOD IS:      22

 USING AIR ENTRY PRESSURE FROM PREVIOUS STRESS PERIOD. CURRENT PERIOD IS:      22

 USING ROOT PRESSURE HEAD FROM PREVIOUS STRESS PERIOD. CURRENT PERIOD IS:      22

 USING ROOT ACTIVITY FROM PREVIOUS STRESS PERIOD. CURRENT PERIOD IS:      22

 PROCESSING AG STRESS PERIOD DATA

 READING AG STRESS PERIOD DATA

 READING IRRIGATION SEGMENT

 READING IRRIGATION WELL

 READING SUPPLEMENTAL WELL

 NO IRRPOND OR REUSING IRRPOND DATA FROM LAST STRESS PERIOD

 END PROCESSING AG STRESS PERIOD DATA OPTIONS
 
 SOLVING FOR HEAD 
                                                   Max.-Head-Change                         Max.-Flux-Residual
  Residual-Control   Outer-Iter.   Inner-Iter.     Column Row Layer    Maximum-Head-Change  Column Row Layer    Maximum-Flux-Residual          L2-NORM 
          0                 1           2             5    8     1       0.1279013530E+00       5    8    1         0.6979842131E+01      0.1654061498E+02
          0                 2           2             5    8     1      -0.4639938108E-01       5    8    1        -0.2567965583E+01      0.6055054701E+01
          0                 3           2             5    7     1       0.1650333228E-01       5    8    1         0.9306735636E+00      0.2259521880E+01
          0                 4           2             5    7     1      -0.6566842642E-03       5    8    1        -0.3806466857E-01      0.9241815743E-01
          0                 5           1             5    7     1       0.8097210614E-05       5    8    1         0.4823965628E-03      0.1171773083E-02

    ------------------------------------------------
       NWT REQUIRED            5 OUTER ITERATIONS 
       AND A TOTAL OF          9 INNER ITERATIONS.
    ------------------------------------------------

 NO OUTPUT CONTROL FOR STRESS PERIOD   22   TIME STEP    1
 
 SOLVING FOR HEAD 
                                                   Max.-Head-Change                         Max.-Flux-Residual
  Residual-Control   Outer-Iter.   Inner-Iter.     Column Row Layer    Maximum-Head-Change  Column Row Layer    Maximum-Flux-Residual          L2-NORM 
          0                 1           2             5    8     1       0.1225093723E+00       5    8    1         0.6679924059E+01      0.1600523655E+02
          0                 2           2             5    8     1      -0.1191657969E-01       5    8    1        -0.6679756528E+00      0.1600450839E+01
          0                 3           2             5    8     1       0.8114774504E-03       5    8    1         0.4675848510E-01      0.1120310429E+00
          0                 4           1             5    8     1      -0.3228943628E-04       5    8    1        -0.1912423966E-02      0.4582006828E-02

    ------------------------------------------------
       NWT REQUIRED            4 OUTER ITERATIONS 
       AND A TOTAL OF          7 INNER ITERATIONS.
    ------------------------------------------------

 NO OUTPUT CONTROL FOR STRESS PERIOD   22   TIME STEP    2
 
 SOLVING FOR HEAD 
                                                   Max.-Head-Change                         Max.-Flux-Residual
  Residual-Control   Outer-Iter.   Inner-Iter.     Column Row Layer    Maximum-Head-Change  Column Row Layer    Maximum-Flux-Residual          L2-NORM 
          0                 1           2             5    8     1       0.1168636600E+00       5    8    1         0.6366306914E+01      0.1543300043E+02
          0                 2           2             5    8     1      -0.4532591694E-01       5    8    1        -0.2506615342E+01      0.5981901177E+01
          0                 3           2             4    7     1       0.3678454631E-01       5    8    1         0.2045462734E+01      0.4994884871E+01
          0                 4           2             4    7     1      -0.1463693147E-02       5    8    1        -0.8364642194E-01      0.2042701717E+00
          0                 5           1             4    7     1       0.1804795917E-04       5    6    1         0.1059169025E-02      0.2588245151E-02

    ------------------------------------------------
       NWT REQUIRED            5 OUTER ITERATIONS 
       AND A TOTAL OF          9 INNER ITERATIONS.
    ------------------------------------------------

 NO OUTPUT CONTROL FOR STRESS PERIOD   22   TIME STEP    3
 
 SOLVING FOR HEAD 
                                                   Max.-Head-Change                         Max.-Flux-Residual
  Residual-Control   Outer-Iter.   Inner-Iter.     Column Row Layer    Maximum-Head-Change  Column Row Layer    Maximum-Flux-Residual          L2-NORM 
          0                 1           2             5    8     1       0.1115779060E+00       5    8    1         0.6072908432E+01      0.1489507948E+02
          0                 2           2             5    8     1      -0.1085328427E-01       5    8    1        -0.6072767449E+00      0.1489446899E+01
          0                 3           2             4    7     1      -0.3431045636E-01       4    7    1        -0.1841646389E+01      0.4511461259E+01
          0                 4           2             4    7     1       0.3623260220E-01       4    7    1         0.1998937553E+01      0.4895028980E+01
          0                 5           2             4    7     1      -0.1442078720E-02       4    7    1        -0.8177870647E-01      0.2003037204E+00
          0                 6           1             4    7     1       0.1779464473E-04       5    8    1         0.1037293132E-02      0.2541226429E-02

    ------------------------------------------------
       NWT REQUIRED            6 OUTER ITERATIONS 
       AND A TOTAL OF         11 INNER ITERATIONS.
    ------------------------------------------------

 NO OUTPUT CONTROL FOR STRESS PERIOD   22   TIME STEP    4
 
 SOLVING FOR HEAD 
                                                   Max.-Head-Change                         Max.-Flux-Residual
  Residual-Control   Outer-Iter.   Inner-Iter.     Column Row Layer    Maximum-Head-Change  Column Row Layer    Maximum-Flux-Residual          L2-NORM 
          0                 1           2             5    8     1       0.1066259424E+00       5    8    1         0.5798237796E+01      0.1438830795E+02
          0                 2           2             5    8     1      -0.1037160922E-01       5    8    1        -0.5798107903E+00      0.1438773144E+01
          0                 3           2             4    7     1      -0.3430909203E-01       4    7    1        -0.1841529767E+01      0.4513993315E+01
          0                 4           2             4    7     1       0.3623255592E-01       4    7    1         0.1998928969E+01      0.4895206096E+01
          0                 5           2             4    7     1      -0.1442076874E-02       4    7    1        -0.8177835134E-01      0.2003109178E+00
          0                 6           1             4    7     1       0.1779462210E-04       5    8    1         0.1037361107E-02      0.2541318438E-02

    ------------------------------------------------
       NWT REQUIRED            6 OUTER ITERATIONS 
       AND A TOTAL OF         11 INNER ITERATIONS.
    ------------------------------------------------

 NO OUTPUT CONTROL FOR STRESS PERIOD   22   TIME STEP    5
 
 SOLVING FOR HEAD 
                                                   Max.-Head-Change                         Max.-Flux-Residual
  Residual-Control   Outer-Iter.   Inner-Iter.     Column Row Layer    Maximum-Head-Change  Column Row Layer    Maximum-Flux-Residual          L2-NORM 
          0                 1           2             5    6     1       0.1022119708E+00       5    8    1         0.5540904990E+01      0.1391035870E+02
          0                 2           2             5    6     1      -0.9942257256E-02       5    8    1        -0.5540785012E+00      0.1390981043E+01
          0                 3           2             4    7     1      -0.3430843331E-01       4    7    1        -0.1841454204E+01      0.4516422593E+01
          0                 4           2             4    7     1       0.3623255413E-01       4    7    1         0.1998923498E+01      0.4895376451E+01
          0                 5           2             4    7     1      -0.1442076799E-02       4    7    1        -0.8177812369E-01      0.2003178322E+00
          0                 6           1             4    7     1       0.1779462098E-04       5    8    1         0.1037424916E-02      0.2541406793E-02

    ------------------------------------------------
       NWT REQUIRED            6 OUTER ITERATIONS 
       AND A TOTAL OF         11 INNER ITERATIONS.
    ------------------------------------------------

 NO OUTPUT CONTROL FOR STRESS PERIOD   22   TIME STEP    6
 
 SOLVING FOR HEAD 
                                                   Max.-Head-Change                         Max.-Flux-Residual
  Residual-Control   Outer-Iter.   Inner-Iter.     Column Row Layer    Maximum-Head-Change  Column Row Layer    Maximum-Flux-Residual          L2-NORM 
          0                 1           2             5    6     1       0.9806579962E-01       5    6    1         0.5312115412E+01      0.1345910546E+02
          0                 2           2             5    6     1      -0.9538961515E-02       5    6    1        -0.5312000220E+00      0.1345858034E+01
          0                 3           2             4    7     1      -0.3430842227E-01       4    7    1        -0.1841416431E+01      0.4518753785E+01
          0                 4           2             4    7     1       0.3623258692E-01       4    7    1         0.1998920555E+01      0.4895539534E+01
          0                 5           2             4    7     1      -0.1442078100E-02       5    8    1        -0.8177899657E-01      0.2003244558E+00
          0                 6           1             4    7     1       0.1779463711E-04       5    8    1         0.1037484697E-02      0.2541489880E-02

    ------------------------------------------------
       NWT REQUIRED            6 OUTER ITERATIONS 
       AND A TOTAL OF         11 INNER ITERATIONS.
    ------------------------------------------------

 NO OUTPUT CONTROL FOR STRESS PERIOD   22   TIME STEP    7
 
 SOLVING FOR HEAD 
                                                   Max.-Head-Change                         Max.-Flux-Residual
  Residual-Control   Outer-Iter.   Inner-Iter.     Column Row Layer    Maximum-Head-Change  Column Row Layer    Maximum-Flux-Residual          L2-NORM 
          0                 1           2             5    6     1       0.9415618270E-01       5    6    1         0.5096640442E+01      0.1303261007E+02
          0                 2           2             5    6     1      -0.9158674918E-02       5    6    1        -0.5096533878E+00      0.1303210372E+01
          0                 3           2             4    7     1      -0.3430901084E-01       4    7    1        -0.1841413703E+01      0.4520991842E+01
          0                 4           2             4    7     1       0.3623265371E-01       4    7    1         0.1998920066E+01      0.4895695984E+01
          0                 5           2             4    7     1      -0.1442080755E-02       5    8    1        -0.8178345517E-01      0.2003308086E+00
          0                 6           1             4    7     1       0.1779467005E-04       5    8    1         0.1037540758E-02      0.2541564633E-02

    ------------------------------------------------
       NWT REQUIRED            6 OUTER ITERATIONS 
       AND A TOTAL OF         11 INNER ITERATIONS.
    ------------------------------------------------

 NO OUTPUT CONTROL FOR STRESS PERIOD   22   TIME STEP    8
 
 SOLVING FOR HEAD 
                                                   Max.-Head-Change                         Max.-Flux-Residual
  Residual-Control   Outer-Iter.   Inner-Iter.     Column Row Layer    Maximum-Head-Change  Column Row Layer    Maximum-Flux-Residual          L2-NORM 
          0                 1           2             5    6     1       0.9046708095E-01       5    6    1         0.4893446845E+01      0.1262908296E+02
          0                 2           2             5    6     1      -0.8799837401E-02       5    6    1        -0.4893348197E+00      0.1262859125E+01
          0                 3           2             4    7     1      -0.3431015419E-01       4    7    1        -0.1841443464E+01      0.4523141196E+01
          0                 4           2             4    7     1       0.3623275189E-01       4    7    1         0.1998921852E+01      0.4895846150E+01
          0                 5           2             4    7     1      -0.1442084660E-02       5    8    1        -0.8178764103E-01      0.2003369146E+00
          0                 6           1             4    7     1       0.1779471844E-04       5    8    1         0.1037593400E-02      0.2541645718E-02

    ------------------------------------------------
       NWT REQUIRED            6 OUTER ITERATIONS 
       AND A TOTAL OF         11 INNER ITERATIONS.
    ------------------------------------------------

 NO OUTPUT CONTROL FOR STRESS PERIOD   22   TIME STEP    9
 
 SOLVING FOR HEAD 
                                                   Max.-Head-Change                         Max.-Flux-Residual
  Residual-Control   Outer-Iter.   Inner-Iter.     Column Row Layer    Maximum-Head-Change  Column Row Layer    Maximum-Flux-Residual          L2-NORM 
          0                 1           2             5    6     1       0.8698411514E-01       5    6    1         0.4701727647E+01      0.1224687780E+02
          0                 2           2             5    6     1      -0.8461050347E-02       5    6    1        -0.4701636267E+00      0.1224639090E+01
          0                 3           2             4    7     1      -0.3431180958E-01       4    7    1        -0.1841503265E+01      0.4525207161E+01
          0                 4           2             4    7     1       0.3623288117E-01       4    7    1         0.1998925861E+01      0.4895990695E+01
          0                 5           2             4    7     1      -0.1442089802E-02       5    8    1        -0.8179157907E-01      0.2003427835E+00
          0                 6           1             4    7     1       0.1779478139E-04       5    8    1         0.1037642947E-02      0.2541715941E-02

    ------------------------------------------------
       NWT REQUIRED            6 OUTER ITERATIONS 
       AND A TOTAL OF         11 INNER ITERATIONS.
    ------------------------------------------------

 NO OUTPUT CONTROL FOR STRESS PERIOD   22   TIME STEP   10
 
 SOLVING FOR HEAD 
                                                   Max.-Head-Change                         Max.-Flux-Residual
  Residual-Control   Outer-Iter.   Inner-Iter.     Column Row Layer    Maximum-Head-Change  Column Row Layer    Maximum-Flux-Residual          L2-NORM 
          0                 1           2             5    7     1       0.8371263677E-01       5    6    1         0.4520704487E+01      0.1188450127E+02
          0                 2           2             5    7     1      -0.8142889307E-02       5    6    1        -0.4520619785E+00      0.1188402975E+01
          0                 3           2             4    7     1      -0.3431392891E-01       4    7    1        -0.1841590380E+01      0.4527192469E+01
          0                 4           2             4    7     1       0.3623303222E-01       4    7    1         0.1998931545E+01      0.4896128971E+01
          0                 5           2             4    7     1      -0.1442095811E-02       5    8    1        -0.8179527150E-01      0.2003484154E+00
          0                 6           1             4    7     1       0.1779485577E-04       5    8    1         0.1037689372E-02      0.2541787244E-02

    ------------------------------------------------
       NWT REQUIRED            6 OUTER ITERATIONS 
       AND A TOTAL OF         11 INNER ITERATIONS.
    ------------------------------------------------

 NO OUTPUT CONTROL FOR STRESS PERIOD   22   TIME STEP   11
 
 SOLVING FOR HEAD 
                                                   Max.-Head-Change                         Max.-Flux-Residual
  Residual-Control   Outer-Iter.   Inner-Iter.     Column Row Layer    Maximum-Head-Change  Column Row Layer    Maximum-Flux-Residual          L2-NORM 
          0                 1           2             5    7     1       0.8189965746E-01       5    7    1         0.4350646237E+01      0.1154055836E+02
          0                 2           2             5    7     1      -0.7966547835E-02       5    7    1        -0.4350609357E+00      0.1154008957E+01
          0                 3           2             4    7     1      -0.3431648380E-01       4    7    1        -0.1841703153E+01      0.4529103381E+01
          0                 4           2             4    7     1       0.3623321213E-01       4    7    1         0.1998939264E+01      0.4896262492E+01
          0                 5           2             4    7     1      -0.1442102969E-02       5    8    1        -0.8179875573E-01      0.2003538359E+00
          0                 6           1             4    7     1       0.1779494404E-04       5    8    1         0.1037733207E-02      0.2541855690E-02

    ------------------------------------------------
       NWT REQUIRED            6 OUTER ITERATIONS 
       AND A TOTAL OF         11 INNER ITERATIONS.
    ------------------------------------------------

 NO OUTPUT CONTROL FOR STRESS PERIOD   22   TIME STEP   12
 
 SOLVING FOR HEAD 
                                                   Max.-Head-Change                         Max.-Flux-Residual
  Residual-Control   Outer-Iter.   Inner-Iter.     Column Row Layer    Maximum-Head-Change  Column Row Layer    Maximum-Flux-Residual          L2-NORM 
          0                 1           2             5    7     1       0.8012510935E-01       5    7    1         0.4256424595E+01      0.1121379147E+02
          0                 2           2             5    7     1      -0.7793943212E-02       5    7    1        -0.4256394849E+00      0.1121332868E+01
          0                 3           2             4    7     1      -0.3431943035E-01       4    7    1        -0.1841839086E+01      0.4530940203E+01
          0                 4           2             4    7     1       0.3623341399E-01       4    7    1         0.1998948606E+01      0.4896390913E+01
          0                 5           2             4    7     1      -0.1442111001E-02       5    8    1        -0.8180203640E-01      0.2003590327E+00
          0                 6           1             4    7     1       0.1779504317E-04       5    8    1         0.1037774455E-02      0.2541913504E-02

    ------------------------------------------------
       NWT REQUIRED            6 OUTER ITERATIONS 
       AND A TOTAL OF         11 INNER ITERATIONS.
    ------------------------------------------------

 NO OUTPUT CONTROL FOR STRESS PERIOD   22   TIME STEP   13
 
 SOLVING FOR HEAD 
                                                   Max.-Head-Change                         Max.-Flux-Residual
  Residual-Control   Outer-Iter.   Inner-Iter.     Column Row Layer    Maximum-Head-Change  Column Row Layer    Maximum-Flux-Residual          L2-NORM 
          0                 1           2             5    7     1       0.7838969173E-01       5    7    1         0.4164203742E+01      0.1090302438E+02
          0                 2           2             5    7     1      -0.7625143632E-02       5    7    1        -0.4164180252E+00      0.1090256268E+01
          0                 3           2             4    7     1      -0.3432273243E-01       5    8    1        -0.1842183458E+01      0.4532708626E+01
          0                 4           2             4    7     1       0.3623363135E-01       5    8    1         0.1999001058E+01      0.4896513524E+01
          0                 5           2             4    7     1      -0.1442119650E-02       5    8    1        -0.8180511730E-01      0.2003640316E+00
          0                 6           1             4    7     1       0.1779514970E-04       5    8    1         0.1037813230E-02      0.2541986007E-02

    ------------------------------------------------
       NWT REQUIRED            6 OUTER ITERATIONS 
       AND A TOTAL OF         11 INNER ITERATIONS.
    ------------------------------------------------

 NO OUTPUT CONTROL FOR STRESS PERIOD   22   TIME STEP   14
 
 SOLVING FOR HEAD 
                                                   Max.-Head-Change                         Max.-Flux-Residual
  Residual-Control   Outer-Iter.   Inner-Iter.     Column Row Layer    Maximum-Head-Change  Column Row Layer    Maximum-Flux-Residual          L2-NORM 
          0                 1           2             5    7     1       0.7669355995E-01       5    7    1         0.4074003565E+01      0.1060717883E+02
          0                 2           2             5    7     1      -0.7460164352E-02       5    7    1        -0.4073985552E+00      0.1060671683E+01
          0                 3           2             4    7     1      -0.3432636386E-01       5    8    1        -0.1843218062E+01      0.4534412176E+01
          0                 4           2             4    7     1       0.3623387144E-01       5    8    1         0.1999072909E+01      0.4896632495E+01
          0                 5           2             4    7     1      -0.1442129203E-02       5    8    1        -0.8180803231E-01      0.2003688635E+00
          0                 6           1             4    7     1       0.1779526765E-04       5    8    1         0.1037849884E-02      0.2542043473E-02

    ------------------------------------------------
       NWT REQUIRED            6 OUTER ITERATIONS 
       AND A TOTAL OF         11 INNER ITERATIONS.
    ------------------------------------------------

 NO OUTPUT CONTROL FOR STRESS PERIOD   22   TIME STEP   15
 
 SOLVING FOR HEAD 
                                                   Max.-Head-Change                         Max.-Flux-Residual
  Residual-Control   Outer-Iter.   Inner-Iter.     Column Row Layer    Maximum-Head-Change  Column Row Layer    Maximum-Flux-Residual          L2-NORM 
          0                 1           2             4    7     1       0.7539043856E-01       5    7    1         0.3985856666E+01      0.1032527529E+02
          0                 2           2             4    7     1      -0.7333433510E-02       5    7    1        -0.3985843443E+00      0.1032473670E+01
          0                 3           2             4    7     1      -0.3433028958E-01       5    8    1        -0.1844194165E+01      0.4536052870E+01
          0                 4           2             4    7     1       0.3623412566E-01       5    8    1         0.1999140575E+01      0.4896746768E+01
          0                 5           2             4    7     1      -0.1442139319E-02       5    8    1        -0.8181077758E-01      0.2003735086E+00
          0                 6           1             4    7     1       0.1779539266E-04       5    8    1         0.1037884434E-02      0.2542100221E-02

    ------------------------------------------------
       NWT REQUIRED            6 OUTER ITERATIONS 
       AND A TOTAL OF         11 INNER ITERATIONS.
    ------------------------------------------------

 NO OUTPUT CONTROL FOR STRESS PERIOD   22   TIME STEP   16
 
 SOLVING FOR HEAD 
                                                   Max.-Head-Change                         Max.-Flux-Residual
  Residual-Control   Outer-Iter.   Inner-Iter.     Column Row Layer    Maximum-Head-Change  Column Row Layer    Maximum-Flux-Residual          L2-NORM 
          0                 1           2             4    7     1       0.7477221566E-01       4    7    1         0.3917134637E+01      0.1005639484E+02
          0                 2           2             4    7     1      -0.7273305164E-02       4    7    1        -0.3917140905E+00      0.1005592607E+01
          0                 3           2             4    7     1      -0.3433448166E-01       5    8    1        -0.1845115898E+01      0.4537634765E+01
          0                 4           2             4    7     1       0.3623439460E-01       5    8    1         0.1999204461E+01      0.4896856899E+01
          0                 5           2             4    7     1      -0.1442150022E-02       5    8    1        -0.8181336960E-01      0.2003779848E+00
          0                 6           1             4    7     1       0.1779552473E-04       5    8    1         0.1037917028E-02      0.2542160845E-02

    ------------------------------------------------
       NWT REQUIRED            6 OUTER ITERATIONS 
       AND A TOTAL OF         11 INNER ITERATIONS.
    ------------------------------------------------

 NO OUTPUT CONTROL FOR STRESS PERIOD   22   TIME STEP   17
 
 SOLVING FOR HEAD 
                                                   Max.-Head-Change                         Max.-Flux-Residual
  Residual-Control   Outer-Iter.   Inner-Iter.     Column Row Layer    Maximum-Head-Change  Column Row Layer    Maximum-Flux-Residual          L2-NORM 
          0                 1           2             4    7     1       0.7411828294E-01       4    7    1         0.3885015444E+01      0.9799705907E+01
          0                 2           2             4    7     1      -0.7209702360E-02       4    7    1        -0.3885026381E+00      0.9799232061E+00
          0                 3           2             4    7     1      -0.3433891370E-01       5    8    1        -0.1845986907E+01      0.4539159692E+01
          0                 4           2             4    7     1       0.3623467673E-01       5    8    1         0.1999264821E+01      0.4896963028E+01
          0                 5           2             4    7     1      -0.1442161249E-02       5    8    1        -0.8181581863E-01      0.2003822988E+00
          0                 6           1             4    7     1       0.1779566340E-04       5    8    1         0.1037947840E-02      0.2542213436E-02

    ------------------------------------------------
       NWT REQUIRED            6 OUTER ITERATIONS 
       AND A TOTAL OF         11 INNER ITERATIONS.
    ------------------------------------------------

 NO OUTPUT CONTROL FOR STRESS PERIOD   22   TIME STEP   18
 
 SOLVING FOR HEAD 
                                                   Max.-Head-Change                         Max.-Flux-Residual
  Residual-Control   Outer-Iter.   Inner-Iter.     Column Row Layer    Maximum-Head-Change  Column Row Layer    Maximum-Flux-Residual          L2-NORM 
          0                 1           2             4    7     1       0.7343229571E-01       4    7    1         0.3851037439E+01      0.9554409272E+01
          0                 2           2             4    7     1      -0.7142980730E-02       4    7    1        -0.3851052512E+00      0.9553929344E+00
          0                 3           2             4    7     1      -0.3434356330E-01       5    8    1        -0.1846810678E+01      0.4540630881E+01
          0                 4           2             4    7     1       0.3623497294E-01       5    8    1         0.1999322017E+01      0.4897065692E+01
          0                 5           2             4    7     1      -0.1442173037E-02       5    8    1        -0.8181813940E-01      0.2003864767E+00
          0                 6           1             4    7     1       0.1779580869E-04       5    8    1         0.1037977044E-02      0.2542262754E-02

    ------------------------------------------------
       NWT REQUIRED            6 OUTER ITERATIONS 
       AND A TOTAL OF         11 INNER ITERATIONS.
    ------------------------------------------------

 NO OUTPUT CONTROL FOR STRESS PERIOD   22   TIME STEP   19
 
 SOLVING FOR HEAD 
                                                   Max.-Head-Change                         Max.-Flux-Residual
  Residual-Control   Outer-Iter.   Inner-Iter.     Column Row Layer    Maximum-Head-Change  Column Row Layer    Maximum-Flux-Residual          L2-NORM 
          0                 1           2             4    7     1       0.7271779429E-01       4    7    1         0.3815397437E+01      0.9319796057E+01
          0                 2           2             4    7     1      -0.7073484716E-02       4    7    1        -0.3815416161E+00      0.9319309008E+00
          0                 3           2             4    7     1      -0.3434840438E-01       5    8    1        -0.1847590149E+01      0.4542050935E+01
          0                 4           2             4    7     1       0.3623527955E-01       5    8    1         0.1999376132E+01      0.4897164758E+01
          0                 5           2             4    7     1      -0.1442185239E-02       5    8    1        -0.8182033527E-01      0.2003905032E+00
          0                 6           1             4    7     1       0.1779595946E-04       5    8    1         0.1038004668E-02      0.2542313507E-02

    ------------------------------------------------
       NWT REQUIRED            6 OUTER ITERATIONS 
       AND A TOTAL OF         11 INNER ITERATIONS.
    ------------------------------------------------

 NO OUTPUT CONTROL FOR STRESS PERIOD   22   TIME STEP   20
 
 SOLVING FOR HEAD 
                                                   Max.-Head-Change                         Max.-Flux-Residual
  Residual-Control   Outer-Iter.   Inner-Iter.     Column Row Layer    Maximum-Head-Change  Column Row Layer    Maximum-Flux-Residual          L2-NORM 
          0                 1           2             4    7     1       0.7197795169E-01       4    7    1         0.3778271698E+01      0.9095200614E+01
          0                 2           2             4    7     1      -0.7001523029E-02       4    7    1        -0.3778293628E+00      0.9094705068E+00
          0                 3           2             4    7     1      -0.3435341112E-01       5    8    1        -0.1848328068E+01      0.4543421081E+01
          0                 4           2             4    7     1       0.3623559070E-01       5    8    1         0.1999427121E+01      0.4897259740E+01
          0                 5           2             4    7     1      -0.1442197621E-02       5    8    1        -0.8182240423E-01      0.2003943625E+00
          0                 6           1             4    7     1       0.1779611203E-04       5    8    1         0.1038030702E-02      0.2542362681E-02

    ------------------------------------------------
       NWT REQUIRED            6 OUTER ITERATIONS 
       AND A TOTAL OF         11 INNER ITERATIONS.
    ------------------------------------------------

 NO OUTPUT CONTROL FOR STRESS PERIOD   22   TIME STEP   21
 
 SOLVING FOR HEAD 
                                                   Max.-Head-Change                         Max.-Flux-Residual
  Residual-Control   Outer-Iter.   Inner-Iter.     Column Row Layer    Maximum-Head-Change  Column Row Layer    Maximum-Flux-Residual          L2-NORM 
          0                 1           2             4    7     1       0.7121584673E-01       4    7    1         0.3739832034E+01      0.8879996093E+01
          0                 2           2             4    7     1      -0.6927395215E-02       4    7    1        -0.3739856765E+00      0.8879490829E+00
          0                 3           2             4    7     1      -0.3435857167E-01       5    8    1        -0.1849027511E+01      0.4544745193E+01
          0                 4           2             4    7     1       0.3623591444E-01       5    8    1         0.1999475673E+01      0.4897352078E+01
          0                 5           2             4    7     1      -0.1442210506E-02       5    8    1        -0.8182437444E-01      0.2003981142E+00
          0                 6           1             4    7     1       0.1779627142E-04       5    8    1         0.1038055488E-02      0.2542408821E-02

    ------------------------------------------------
       NWT REQUIRED            6 OUTER ITERATIONS 
       AND A TOTAL OF         11 INNER ITERATIONS.
    ------------------------------------------------

 NO OUTPUT CONTROL FOR STRESS PERIOD   22   TIME STEP   22
 
 SOLVING FOR HEAD 
                                                   Max.-Head-Change                         Max.-Flux-Residual
  Residual-Control   Outer-Iter.   Inner-Iter.     Column Row Layer    Maximum-Head-Change  Column Row Layer    Maximum-Flux-Residual          L2-NORM 
          0                 1           2             4    7     1       0.7043420970E-01       4    7    1         0.3700230775E+01      0.8673625011E+01
          0                 2           2             4    7     1      -0.6851366908E-02       4    7    1        -0.3700257936E+00      0.8673110559E+00
          0                 3           2             4    7     1      -0.3436386095E-01       5    8    1        -0.1849690691E+01      0.4546023770E+01
          0                 4           2             4    7     1       0.3623624278E-01       5    8    1         0.1999521584E+01      0.4897440945E+01
          0                 5           2             4    7     1      -0.1442223572E-02       5    8    1        -0.8182623754E-01      0.2004017318E+00
          0                 6           1             4    7     1       0.1779643228E-04       5    8    1         0.1038078926E-02      0.2542454559E-02

    ------------------------------------------------
       NWT REQUIRED            6 OUTER ITERATIONS 
       AND A TOTAL OF         11 INNER ITERATIONS.
    ------------------------------------------------

 NO OUTPUT CONTROL FOR STRESS PERIOD   22   TIME STEP   23
 
 SOLVING FOR HEAD 
                                                   Max.-Head-Change                         Max.-Flux-Residual
  Residual-Control   Outer-Iter.   Inner-Iter.     Column Row Layer    Maximum-Head-Change  Column Row Layer    Maximum-Flux-Residual          L2-NORM 
          0                 1           2             4    7     1       0.6963597984E-01       4    7    1         0.3659631390E+01      0.8475564239E+01
          0                 2           2             4    7     1      -0.6773724071E-02       4    7    1        -0.3659660646E+00      0.8475038828E+00
          0                 3           2             4    7     1      -0.3436926363E-01       5    8    1        -0.1850320062E+01      0.4547260411E+01
          0                 4           2             4    7     1       0.3623657921E-01       5    8    1         0.1999565264E+01      0.4897527161E+01
          0                 5           2             4    7     1      -0.1442236961E-02       5    8    1        -0.8182801019E-01      0.2004052444E+00
          0                 6           1             4    7     1       0.1779659739E-04       5    8    1         0.1038101232E-02      0.2542500448E-02

    ------------------------------------------------
       NWT REQUIRED            6 OUTER ITERATIONS 
       AND A TOTAL OF         11 INNER ITERATIONS.
    ------------------------------------------------

 NO OUTPUT CONTROL FOR STRESS PERIOD   22   TIME STEP   24
 
 SOLVING FOR HEAD 
                                                   Max.-Head-Change                         Max.-Flux-Residual
  Residual-Control   Outer-Iter.   Inner-Iter.     Column Row Layer    Maximum-Head-Change  Column Row Layer    Maximum-Flux-Residual          L2-NORM 
          0                 1           2             4    7     1       0.6882321734E-01       4    7    1         0.3618149754E+01      0.8285313425E+01
          0                 2           2             4    7     1      -0.6694667146E-02       4    7    1        -0.3618180800E+00      0.8284777258E+00
          0                 3           2             4    7     1      -0.3437475915E-01       5    8    1        -0.1850917480E+01      0.4548455186E+01
          0                 4           2             4    7     1       0.3623691599E-01       5    8    1         0.1999606484E+01      0.4897609865E+01
          0                 5           2             4    7     1      -0.1442250364E-02       5    8    1        -0.8182968293E-01      0.2004086070E+00
          0                 6           1             4    7     1       0.1779676295E-04       5    8    1         0.1038122291E-02      0.2542539211E-02

    ------------------------------------------------
       NWT REQUIRED            6 OUTER ITERATIONS 
       AND A TOTAL OF         11 INNER ITERATIONS.
    ------------------------------------------------

 NO OUTPUT CONTROL FOR STRESS PERIOD   22   TIME STEP   25
 
 SOLVING FOR HEAD 
                                                   Max.-Head-Change                         Max.-Flux-Residual
  Residual-Control   Outer-Iter.   Inner-Iter.     Column Row Layer    Maximum-Head-Change  Column Row Layer    Maximum-Flux-Residual          L2-NORM 
          0                 1           2             4    7     1       0.6799835818E-01       4    7    1         0.3575921900E+01      0.8102426451E+01
          0                 2           2             4    7     1      -0.6614433132E-02       4    7    1        -0.3575954459E+00      0.8101878890E+00
          0                 3           2             4    7     1      -0.3438033999E-01       5    8    1        -0.1851485368E+01      0.4549611733E+01
          0                 4           2             4    7     1       0.3623726142E-01       5    8    1         0.1999645889E+01      0.4897690485E+01
          0                 5           2             4    7     1      -0.1442264112E-02       5    8    1        -0.8183128220E-01      0.2004118977E+00
          0                 6           1             4    7     1       0.1779693254E-04       5    8    1         0.1038142409E-02      0.2542581071E-02

    ------------------------------------------------
       NWT REQUIRED            6 OUTER ITERATIONS 
       AND A TOTAL OF         11 INNER ITERATIONS.
    ------------------------------------------------

 NO OUTPUT CONTROL FOR STRESS PERIOD   22   TIME STEP   26
 
 SOLVING FOR HEAD 
                                                   Max.-Head-Change                         Max.-Flux-Residual
  Residual-Control   Outer-Iter.   Inner-Iter.     Column Row Layer    Maximum-Head-Change  Column Row Layer    Maximum-Flux-Residual          L2-NORM 
          0                 1           2             4    7     1       0.6716353041E-01       4    7    1         0.3533066826E+01      0.7926486489E+01
          0                 2           2             4    7     1      -0.6533229068E-02       4    7    1        -0.3533100647E+00      0.7925927934E+00
          0                 3           2             4    7     1      -0.3438598738E-01       5    8    1        -0.1852025402E+01      0.4550730747E+01
          0                 4           2             4    7     1       0.3623761008E-01       5    8    1         0.1999683357E+01      0.4897768433E+01
          0                 5           2             4    7     1      -0.1442277988E-02       5    8    1        -0.8183280290E-01      0.2004150577E+00
          0                 6           1             4    7     1       0.1779710381E-04       5    8    1         0.1038161550E-02      0.2542624446E-02

    ------------------------------------------------
       NWT REQUIRED            6 OUTER ITERATIONS 
       AND A TOTAL OF         11 INNER ITERATIONS.
    ------------------------------------------------

 NO OUTPUT CONTROL FOR STRESS PERIOD   22   TIME STEP   27
 
 SOLVING FOR HEAD 
                                                   Max.-Head-Change                         Max.-Flux-Residual
  Residual-Control   Outer-Iter.   Inner-Iter.     Column Row Layer    Maximum-Head-Change  Column Row Layer    Maximum-Flux-Residual          L2-NORM 
          0                 1           2             4    7     1       0.6632056478E-01       4    7    1         0.3489687559E+01      0.7757097892E+01
          0                 2           2             4    7     1      -0.6451233074E-02       4    7    1        -0.3489722414E+00      0.7756526911E+00
          0                 3           2             4    7     1      -0.3439168676E-01       5    8    1        -0.1852539070E+01      0.4551813580E+01
          0                 4           2             4    7     1       0.3623777166E-01       5    8    1         0.1999708541E+01      0.4897818263E+01
          0                 5           2             4    7     1      -0.1442102228E-02       5    8    1        -0.8182349008E-01      0.2003917642E+00
          0                 6           1             4    7     1       0.1779493485E-04       5    8    1         0.1038043151E-02      0.2542337907E-02

    ------------------------------------------------
       NWT REQUIRED            6 OUTER ITERATIONS 
       AND A TOTAL OF         11 INNER ITERATIONS.
    ------------------------------------------------

 NO OUTPUT CONTROL FOR STRESS PERIOD   22   TIME STEP   28
 
 SOLVING FOR HEAD 
                                                   Max.-Head-Change                         Max.-Flux-Residual
  Residual-Control   Outer-Iter.   Inner-Iter.     Column Row Layer    Maximum-Head-Change  Column Row Layer    Maximum-Flux-Residual          L2-NORM 
          0                 1           2             4    7     1       0.6547141736E-01       4    7    1         0.3445893637E+01      0.7593909975E+01
          0                 2           2             4    7     1      -0.6368635455E-02       4    7    1        -0.3445929322E+00      0.7593325198E+00
          0                 3           2             4    7     1      -0.3439742718E-01       5    8    1        -0.1853028151E+01      0.4552862371E+01
          0                 4           2             4    7     1       0.3623830953E-01       5    8    1         0.1999752678E+01      0.4897916379E+01
          0                 5           2             4    7     1      -0.1442305825E-02       5    8    1        -0.8183561647E-01      0.2004210764E+00
          0                 6           1             4    7     1       0.1779744714E-04       5    8    1         0.1038196951E-02      0.2542695309E-02

    ------------------------------------------------
       NWT REQUIRED            6 OUTER ITERATIONS 
       AND A TOTAL OF         11 INNER ITERATIONS.
    ------------------------------------------------

 NO OUTPUT CONTROL FOR STRESS PERIOD   22   TIME STEP   29
 
 SOLVING FOR HEAD 
                                                   Max.-Head-Change                         Max.-Flux-Residual
  Residual-Control   Outer-Iter.   Inner-Iter.     Column Row Layer    Maximum-Head-Change  Column Row Layer    Maximum-Flux-Residual          L2-NORM 
          0                 1           2             4    7     1       0.6461762023E-01       4    7    1         0.3401771861E+01      0.7436353961E+01
          0                 2           2             4    7     1      -0.6285585270E-02       4    7    1        -0.3401808192E+00      0.7435803380E+00
          0                 3           2             4    7     1      -0.3440319833E-01       5    8    1        -0.1853494187E+01      0.4553876090E+01
          0                 4           2             4    7     1       0.3623845963E-01       5    8    1         0.1999773759E+01      0.4897959584E+01
          0                 5           2             4    7     1      -0.1442115594E-02       5    8    1        -0.8182534247E-01      0.2003955744E+00
          0                 6           1             4    7     1       0.1779510019E-04       5    8    1         0.1038066388E-02      0.2542376366E-02

    ------------------------------------------------
       NWT REQUIRED            6 OUTER ITERATIONS 
       AND A TOTAL OF         11 INNER ITERATIONS.
    ------------------------------------------------

 NO OUTPUT CONTROL FOR STRESS PERIOD   22   TIME STEP   30



 STREAM LISTING     PERIOD     22   STEP       30

 LAYER ROW COL. STREAM  RCH.  FLOW INTO     FLOW TO   FLOW OUT OF   OVRLND.     DIRECT     STREAM       STREAM     STREAM     STREAM   STREAMBED  STREAMBED
                SEG.NO.  NO.  STRM. RCH.    AQUIFER    STRM. RCH.    RUNOFF     PRECIP       ET          HEAD       DEPTH      WIDTH   CONDCTNC.   GRADIENT

   1    1    1     1     1    1.8324E+01  2.0985E-01   1.8114E+01  0.000E+00  0.000E+00  0.000E+00  1.09412E+03  1.071E+00  1.146E+01  5.155E-02  1.357E+00
   1    2    2     1     2    1.8114E+01  3.2368E-01   1.7790E+01  0.000E+00  0.000E+00  0.000E+00  1.08912E+03  1.066E+00  1.137E+01  7.960E-02  1.355E+00
   1    3    3     1     3    1.7790E+01  2.7478E-01   1.7515E+01  0.000E+00  0.000E+00  0.000E+00  1.08348E+03  1.061E+00  1.128E+01  6.766E-02  1.354E+00
   1    3    4     1     4    1.7515E+01  2.5199E-01   1.7263E+01  0.000E+00  0.000E+00  0.000E+00  1.07846E+03  1.056E+00  1.119E+01  6.212E-02  1.352E+00
   1    4    5     2     1    1.5263E+01  3.0363E-01   1.4960E+01  0.000E+00  0.000E+00  0.000E+00  1.07283E+03  8.927E-01  1.200E+01  7.800E-02  1.298E+00
   1    5    6     2     2    1.4960E+01  2.3299E-01   1.4727E+01  0.000E+00  0.000E+00  0.000E+00  1.06739E+03  8.832E-01  1.200E+01  6.000E-02  1.294E+00
   1    6    6     2     3    1.4727E+01  2.3249E-01   1.4494E+01  0.000E+00  0.000E+00  0.000E+00  1.06267E+03  8.749E-01  1.200E+01  6.000E-02  1.292E+00
   1    7    6     2     4    1.4494E+01  2.3199E-01   1.4262E+01  0.000E+00  0.000E+00  0.000E+00  1.05794E+03  8.665E-01  1.200E+01  6.000E-02  1.289E+00
   1    8    6     2     5    1.4262E+01  2.3149E-01   1.4031E+01  0.000E+00  0.000E+00  0.000E+00  1.05322E+03  8.581E-01  1.200E+01  6.000E-02  1.286E+00
   1    3    5     3     1    2.0000E+00  2.8252E-01   1.7175E+00  0.000E+00  0.000E+00  0.000E+00  1.07555E+03  1.909E+00  9.636E+00  7.227E-02  1.955E+00
   1    3    6     3     2    1.7175E+00  2.4905E-01   1.4684E+00  0.000E+00  0.000E+00  0.000E+00  1.07264E+03  1.727E+00  8.909E+00  6.682E-02  1.864E+00
   1    3    7     3     3    1.4684E+00  1.9718E-01   1.2712E+00  0.000E+00  0.000E+00  0.000E+00  1.06987E+03  1.555E+00  8.218E+00  5.547E-02  1.777E+00
   1    4    8     3     4    1.2712E+00  2.2567E-01   1.0456E+00  0.000E+00  0.000E+00  0.000E+00  1.06682E+03  1.364E+00  7.455E+00  6.709E-02  1.682E+00
   1    5    8     3     5    1.0456E+00  1.5790E-01   8.8768E-01  0.000E+00  0.000E+00  0.000E+00  1.06362E+03  1.164E+00  6.655E+00  4.991E-02  1.582E+00
   1    6    8     3     6    8.8768E-01  5.5980E-02   8.3170E-01  0.000E+00  0.000E+00  0.000E+00  1.06158E+03  1.036E+00  6.145E+00  1.844E-02  1.518E+00
   1    5   10     4     1    1.0000E+01  9.0919E-02   9.9091E+00  0.000E+00  0.000E+00  0.000E+00  1.07836E+03  6.368E-01  1.000E+01  2.500E-02  1.212E+00
   1    5    9     4     2    9.9091E+00  1.8158E-01   9.7275E+00  0.000E+00  0.000E+00  0.000E+00  1.07154E+03  6.315E-01  1.000E+01  5.000E-02  1.211E+00
   1    6    8     4     3    9.7275E+00  1.2689E-01   9.6006E+00  0.000E+00  0.000E+00  0.000E+00  1.06381E+03  6.256E-01  1.000E+01  3.500E-02  1.209E+00
   1    6    8     5     1    1.0432E+01  2.2686E-01   1.0205E+01  0.000E+00  0.000E+00  0.000E+00  1.05868E+03  6.790E-01  1.542E+01  6.166E-02  1.226E+00
   1    7    7     5     2    1.0205E+01  2.7894E-01   9.9265E+00  0.000E+00  0.000E+00  0.000E+00  1.05417E+03  6.732E-01  1.519E+01  7.594E-02  1.224E+00
   1    8    7     5     3    9.9265E+00  1.9221E-01   9.7343E+00  0.000E+00  0.000E+00  0.000E+00  1.04992E+03  6.676E-01  1.497E+01  5.241E-02  1.223E+00
   1    8    6     5     4    9.7343E+00  1.3577E-01   9.5985E+00  0.000E+00  0.000E+00  0.000E+00  1.04691E+03  6.637E-01  1.482E+01  3.706E-02  1.221E+00
   1    9    6     6     1    1.2409E+01  2.2786E-01   1.2181E+01  0.000E+00  0.000E+00  0.000E+00  1.04352E+03  7.976E-01  1.200E+01  6.000E-02  1.266E+00
   1   10    7     6     2    1.2181E+01  2.2733E-01   1.1954E+01  0.000E+00  0.000E+00  0.000E+00  1.03897E+03  7.888E-01  1.200E+01  6.000E-02  1.263E+00
   1   11    7     6     3    1.1954E+01  2.2679E-01   1.1727E+01  0.000E+00  0.000E+00  0.000E+00  1.03442E+03  7.798E-01  1.200E+01  6.000E-02  1.260E+00
   1   12    7     6     4    1.1727E+01  2.2625E-01   1.1501E+01  0.000E+00  0.000E+00  0.000E+00  1.02986E+03  7.708E-01  1.200E+01  6.000E-02  1.257E+00
   1   13    7     6     5    1.1501E+01 -9.6073E-02   1.1597E+01  0.000E+00  0.000E+00  0.000E+00  1.02668E+03  7.682E-01  1.200E+01  2.400E-01 -1.334E-01
   1   14    9     7     1    1.5000E+02  1.3363E+00   1.4866E+02  0.000E+00  0.000E+00  0.000E+00  1.03987E+03  2.288E+00  5.529E+01  5.593E-01  7.964E-01
   1   13    8     7     2    1.4866E+02  1.8282E+00   1.4684E+02  0.000E+00  0.000E+00  0.000E+00  1.03478E+03  2.279E+00  5.526E+01  6.148E-01  9.913E-01
   1   13    7     7     3    1.4684E+02  1.4588E+00   1.4538E+02  0.000E+00  0.000E+00  0.000E+00  1.02969E+03  2.271E+00  5.522E+01  5.585E-01  8.707E-01
   1   13    6     8     1    1.5697E+02  8.3112E-01   1.5614E+02  0.000E+00  0.000E+00  0.000E+00  1.02474E+03  2.862E+00  4.150E+01  4.229E-01  6.550E-01
   1   13    5     8     2    1.5614E+02  1.0285E-01   1.5604E+02  0.000E+00  0.000E+00  0.000E+00  1.01848E+03  2.859E+00  4.146E+01  4.225E-01  8.115E-02
   1   13    4     8     3    1.5604E+02 -2.6710E+00   1.5871E+02  0.000E+00  0.000E+00  0.000E+00  1.01224E+03  2.868E+00  4.159E+01  4.238E+00 -2.101E-01
   1   13    3     8     4    1.5871E+02 -3.7617E+00   1.6247E+02  0.000E+00  0.000E+00  0.000E+00  1.00601E+03  2.890E+00  4.190E+01  4.270E+00 -2.937E-01
   1   13    2     8     5    1.6247E+02 -2.6215E+00   1.6509E+02  0.000E+00  0.000E+00  0.000E+00  9.99786E+02  2.911E+00  4.221E+01  4.302E+00 -2.031E-01
   1   13    1     8     6    1.6509E+02 -2.0015E+00   1.6710E+02  0.000E+00  0.000E+00  0.000E+00  9.94802E+02  2.927E+00  4.244E+01  2.595E+00 -2.571E-01
   1    8    6     9     1    1.1220E+01  0.0000E+00   1.1220E+01  0.000E+00  0.000E+00  0.000E+00  1.08118E+03  2.428E+00  4.000E+00  0.000E+00  1.809E+00
   1    8    5     9     2    1.1220E+01  0.0000E+00   1.1220E+01  0.000E+00  0.000E+00  0.000E+00  1.08068E+03  2.428E+00  4.000E+00  0.000E+00  1.809E+00





UNSATURATED ZONE PACKAGE VOLUMETRIC BUDGET FOR  TIME STEP    30 STRESS PERIOD   22
  ------------------------------------------------------------------------------



     CUMULATIVE VOLUMES      L**3       RATES FOR THIS TIME STEP      L**3/T
     ------------------                 ------------------------

           IN:                                      IN:
           ---                                      ---
        INFILTRATION =   986042087.7702          INFILTRATION =          12.0678

          OUT:                                     OUT:
          ----                                     ----
              UZF ET =   854023393.3325                UZF ET =          12.0675
        UZF RECHARGE =       73224.0000          UZF RECHARGE =       0.0000E+00

            IN - OUT =   131945470.4377              IN - OUT =       2.5678E-04

          STORAGE:                                 STORAGE:
          --------                                 --------
      STORAGE CHANGE =   131946746.5845        STORAGE CHANGE =       2.5687E-04

 PERCENT DISCREPANCY IS DIFFERENCE BETWEEN IN-OUT MINUS CHANGE IN STORAGE
 DIVIDED BY THE AVERAGE OF IN AND OUT TIMES 100

 PERCENT DISCREPANCY =          -0.00     PERCENT DISCREPANCY =           0.00






1
  VOLUMETRIC BUDGET FOR AGRICULTURAL FIELDS AT  END OF TIME STEP   30, STRESS PERIOD  22
  ------------------------------------------------------------------------------

     CUMULATIVE VOLUMES      L**3       RATES FOR THIS TIME STEP      L**3/T
     ------------------                 ------------------------

           IN:                                      IN:
           ---                                      ---
               AG WELLS  =   328055200.0000                 AG WELLS  =           0.0000
      DIVERSION SEGMENTS =   611151808.0000        DIVERSION SEGMENTS =          11.2200
       IRRIGATION PONDS  =           0.0000         IRRIGATION PONDS  =           0.0000
           GW IRRIGATION =           0.0000             GW IRRIGATION =           0.0000
           SW IRRIGATION =           0.0000             SW IRRIGATION =           0.0000
        SYSTEM LOSSES GW =           0.0000          SYSTEM LOSSES GW =           0.0000
        SYSTEM LOSSES SW =           0.0000          SYSTEM LOSSES SW =           0.0000

                TOTAL IN =   939207040.0000                  TOTAL IN =          11.2200

          OUT:                                     OUT:
          ----                                     ----
               AG WELLS  =           0.0000                 AG WELLS  =           0.0000
      DIVERSION SEGMENTS =           0.0000        DIVERSION SEGMENTS =           0.0000
       IRRIGATION PONDS  =           0.0000         IRRIGATION PONDS  =           0.0000
           GW IRRIGATION =   328055200.0000             GW IRRIGATION =           0.0000
           SW IRRIGATION =   611163648.0000             SW IRRIGATION =          11.2203
        SYSTEM LOSSES GW =           0.0000          SYSTEM LOSSES GW =           0.0000
        SYSTEM LOSSES SW =           0.0000          SYSTEM LOSSES SW =           0.0000

               TOTAL OUT =   939218816.0000                 TOTAL OUT =          11.2203

                IN - OUT =      -11776.0000                  IN - OUT =      -2.2411E-04

     PERCENT DISCREPANCY =          -0.00         PERCENT DISCREPANCY =          -0.00



1
  VOLUMETRIC BUDGET FOR ENTIRE MODEL AT END OF TIME STEP   30, STRESS PERIOD  22
  ------------------------------------------------------------------------------

     CUMULATIVE VOLUMES      L**3       RATES FOR THIS TIME STEP      L**3/T
     ------------------                 ------------------------

           IN:                                      IN:
           ---                                      ---
             STORAGE     =   464674208.0000               STORAGE     =          16.6291
       CONSTANT HEAD     =           0.0000         CONSTANT HEAD     =           0.0000
     HEAD DEP BOUNDS     =    15807010.0000       HEAD DEP BOUNDS     =           0.2858
      STREAM LEAKAGE     =   660653184.0000        STREAM LEAKAGE     =          11.1598
        UZF RECHARGE     =       73223.9531          UZF RECHARGE     =           0.0000
               GW ET     =           0.0000                 GW ET     =           0.0000
     SURFACE LEAKAGE     =           0.0000       SURFACE LEAKAGE     =           0.0000
           AG WELLS      =           0.0000             AG WELLS      =           0.0000

                TOTAL IN =  1141207552.0000                  TOTAL IN =          28.0747

          OUT:                                     OUT:
          ----                                     ----
             STORAGE     =   192966624.0000               STORAGE     =          16.6350
       CONSTANT HEAD     =           0.0000         CONSTANT HEAD     =           0.0000
     HEAD DEP BOUNDS     =    16088481.0000       HEAD DEP BOUNDS     =           0.2878
      STREAM LEAKAGE     =   601774336.0000        STREAM LEAKAGE     =          11.1518
        UZF RECHARGE     =           0.0000          UZF RECHARGE     =           0.0000
               GW ET     =     2326724.7500                 GW ET     =           0.0000
     SURFACE LEAKAGE     =           0.0000       SURFACE LEAKAGE     =           0.0000
           AG WELLS      =   328055200.0000             AG WELLS      =           0.0000

               TOTAL OUT =  1141211392.0000                 TOTAL OUT =          28.0746

                IN - OUT =       -3840.0000                  IN - OUT =       9.5367E-05

     PERCENT DISCREPANCY =          -0.00         PERCENT DISCREPANCY =           0.00






         TIME SUMMARY AT END OF TIME STEP   30 IN STRESS PERIOD   22
                    SECONDS     MINUTES      HOURS       DAYS        YEARS
                    -----------------------------------------------------------
   TIME STEP LENGTH  87667.      1461.1      24.352      1.0147     2.77799E-03
 STRESS PERIOD TIME 2.63000E+06  43833.      730.56      30.440     8.33397E-02
         TOTAL TIME 5.53166E+07 9.21944E+05  15366.      640.24      1.7529    
1
1
                            STRESS PERIOD NO.   23, LENGTH =   2630000.    
                            -----------------------------------------------

                              NUMBER OF TIME STEPS =    30

                               MULTIPLIER FOR DELT =     1.000

                            INITIAL TIME STEP SIZE =   87666.66    

 REUSING NON-PARAMETER GHB CELLS FROM LAST STRESS PERIOD

      2 GHB CELLS

 REUSING STREAM SEGMENT DATA FROM LAST STRESS PERIOD



            AREAL INFILTRATION RATE
 READING ON UNIT   19 WITH FORMAT: (FREE)              

            1           2           3           4           5           6           7           8           9          10
 ........................................................................................................................
   1   1.0000E-10  2.0000E-10   0.000       0.000       0.000       0.000       0.000       0.000       0.000       0.000    
   2   2.0000E-10  1.0000E-10  2.0000E-10   0.000       0.000      8.0000E-10  8.0000E-10  5.0000E-10   0.000       0.000    
   3    0.000      5.0000E-10  1.0000E-10  1.0000E-10  8.0000E-10  8.0000E-10  5.0000E-10  5.0000E-10   0.000       0.000    
   4   8.0000E-10  5.0000E-10  1.0000E-10  1.0000E-10  1.0000E-10  1.0000E-10  1.0000E-10  1.0000E-10  2.0000E-10   0.000    
   5   8.0000E-10  5.0000E-10  1.0000E-10  1.0000E-10  1.0000E-10  1.0000E-10  1.0000E-10  1.0000E-10  1.0000E-10  1.0000E-10
   6   8.0000E-10  5.0000E-10  5.0000E-10  2.0000E-10  2.0000E-10  1.0000E-10  1.0000E-10  1.0000E-10  1.0000E-10  5.0000E-10
   7   8.0000E-10  5.0000E-10  5.0000E-10  2.0000E-10  2.0000E-10  1.0000E-10  1.0000E-10  2.0000E-10  2.0000E-10   0.000    
   8    0.000      5.0000E-10  5.0000E-10  2.0000E-10  2.0000E-10  1.0000E-10  1.0000E-10  2.0000E-10  5.0000E-10   0.000    
   9    0.000      5.0000E-10  5.0000E-10  2.0000E-10  2.0000E-10  1.0000E-10  1.0000E-10  2.0000E-10  5.0000E-10   0.000    
  10    0.000      5.0000E-10  5.0000E-10  2.0000E-10  2.0000E-10  1.0000E-10  1.0000E-10  2.0000E-10  5.0000E-10  8.0000E-10
  11    0.000      1.0000E-10  1.0000E-10  1.0000E-10  1.0000E-10  1.0000E-10  1.0000E-10  2.0000E-10  5.0000E-10   0.000    
  12   1.0000E-10  1.0000E-10  1.0000E-10  1.0000E-10  1.0000E-10  1.0000E-10  1.0000E-10  1.0000E-10  2.0000E-10   0.000    
  13   1.0000E-10  1.0000E-10  2.0000E-10  2.0000E-10  2.0000E-10  2.0000E-10  2.0000E-10  1.0000E-10  1.0000E-10   0.000    
  14    0.000      2.0000E-10  5.0000E-10  5.0000E-10  5.0000E-10  5.0000E-10  5.0000E-10  2.0000E-10  1.0000E-10   0.000    
  15    0.000       0.000      8.0000E-10  8.0000E-10  8.0000E-10  8.0000E-10   0.000       0.000       0.000       0.000    

                  ET RATE =  5.000000E-09

 USING ET EXTINCTION DEPTH FROM PREVIOUS STRESS PERIOD. CURRENT PERIOD IS:      23

 USING EXTINCTION WATER CONTENT FROM PREVIOUS STRESS PERIOD. CURRENT PERIOD IS:      23

 USING AIR ENTRY PRESSURE FROM PREVIOUS STRESS PERIOD. CURRENT PERIOD IS:      23

 USING ROOT PRESSURE HEAD FROM PREVIOUS STRESS PERIOD. CURRENT PERIOD IS:      23

 USING ROOT ACTIVITY FROM PREVIOUS STRESS PERIOD. CURRENT PERIOD IS:      23

 PROCESSING AG STRESS PERIOD DATA

 READING AG STRESS PERIOD DATA

 READING IRRIGATION SEGMENT

 READING IRRIGATION WELL

 READING SUPPLEMENTAL WELL

 NO IRRPOND OR REUSING IRRPOND DATA FROM LAST STRESS PERIOD

 END PROCESSING AG STRESS PERIOD DATA OPTIONS
 
 SOLVING FOR HEAD 
                                                   Max.-Head-Change                         Max.-Flux-Residual
  Residual-Control   Outer-Iter.   Inner-Iter.     Column Row Layer    Maximum-Head-Change  Column Row Layer    Maximum-Flux-Residual          L2-NORM 
          0                 1           2             4    7     1       0.6376070286E-01       4    7    1         0.3357408976E+01      0.7284122187E+01
          0                 2           2             4    7     1      -0.6202231122E-02       4    7    1        -0.3357445680E+00      0.7283738794E+00
          0                 3           2             4    7     1       0.4223484241E-03       4    7    1         0.2350209517E-01      0.5098281787E-01
          0                 4           1             4    7     1      -0.1680564117E-04       4    7    1        -0.9612371982E-03      0.2085003474E-02

    ------------------------------------------------
       NWT REQUIRED            4 OUTER ITERATIONS 
       AND A TOTAL OF          7 INNER ITERATIONS.
    ------------------------------------------------

 NO OUTPUT CONTROL FOR STRESS PERIOD   23   TIME STEP    1
 
 SOLVING FOR HEAD 
                                                   Max.-Head-Change                         Max.-Flux-Residual
  Residual-Control   Outer-Iter.   Inner-Iter.     Column Row Layer    Maximum-Head-Change  Column Row Layer    Maximum-Flux-Residual          L2-NORM 
          0                 1           2             4    7     1       0.6290222780E-01       4    7    1         0.3312891682E+01      0.7136225410E+01
          0                 2           2             4    7     1      -0.6118725435E-02       4    7    1        -0.3312928718E+00      0.7135895527E+00
          0                 3           2             4    7     1       0.4166619913E-03       4    7    1         0.2319047601E-01      0.4994836971E-01
          0                 4           1             4    7     1      -0.1657937272E-04       4    7    1        -0.9484919506E-03      0.2042731946E-02

    ------------------------------------------------
       NWT REQUIRED            4 OUTER ITERATIONS 
       AND A TOTAL OF          7 INNER ITERATIONS.
    ------------------------------------------------

 NO OUTPUT CONTROL FOR STRESS PERIOD   23   TIME STEP    2
 
 SOLVING FOR HEAD 
                                                   Max.-Head-Change                         Max.-Flux-Residual
  Residual-Control   Outer-Iter.   Inner-Iter.     Column Row Layer    Maximum-Head-Change  Column Row Layer    Maximum-Flux-Residual          L2-NORM 
          0                 1           2             4    7     1       0.6204335842E-01       4    7    1         0.3268286197E+01      0.6993443930E+01
          0                 2           2             4    7     1      -0.6035181191E-02       4    7    1        -0.3268323432E+00      0.6993161168E+00
          0                 3           2             4    7     1       0.4109729349E-03       4    7    1         0.2287823868E-01      0.4894974503E-01
          0                 4           1             4    7     1      -0.1635299986E-04       4    7    1        -0.9357214381E-03      0.2001911811E-02

    ------------------------------------------------
       NWT REQUIRED            4 OUTER ITERATIONS 
       AND A TOTAL OF          7 INNER ITERATIONS.
    ------------------------------------------------

 NO OUTPUT CONTROL FOR STRESS PERIOD   23   TIME STEP    3
 
 SOLVING FOR HEAD 
                                                   Max.-Head-Change                         Max.-Flux-Residual
  Residual-Control   Outer-Iter.   Inner-Iter.     Column Row Layer    Maximum-Head-Change  Column Row Layer    Maximum-Flux-Residual          L2-NORM 
          0                 1           2             4    7     1       0.6118529055E-01       4    7    1         0.3223660240E+01      0.6855508897E+01
          0                 2           2             4    7     1      -0.5951714734E-02       4    7    1        -0.3223697553E+00      0.6855266440E+00
          0                 3           2             4    7     1       0.4052891773E-03       4    7    1         0.2256585732E-01      0.4798469967E-01
          0                 4           1             4    7     1      -0.1612683779E-04       4    7    1        -0.9229450166E-03      0.1962644238E-02

    ------------------------------------------------
       NWT REQUIRED            4 OUTER ITERATIONS 
       AND A TOTAL OF          7 INNER ITERATIONS.
    ------------------------------------------------

 NO OUTPUT CONTROL FOR STRESS PERIOD   23   TIME STEP    4
 
 SOLVING FOR HEAD 
                                                   Max.-Head-Change                         Max.-Flux-Residual
  Residual-Control   Outer-Iter.   Inner-Iter.     Column Row Layer    Maximum-Head-Change  Column Row Layer    Maximum-Flux-Residual          L2-NORM 
          0                 1           2             4    7     1       0.6032911773E-01       4    7    1         0.3179075811E+01      0.6722162609E+01
          0                 2           2             4    7     1      -0.5868432454E-02       4    7    1        -0.3179113097E+00      0.6721954472E+00
          0                 3           2             4    7     1       0.3996179625E-03       4    7    1         0.2225376601E-01      0.4705177237E-01
          0                 4           1             4    7     1      -0.1590117480E-04       4    7    1        -0.9101804553E-03      0.1924301195E-02

    ------------------------------------------------
       NWT REQUIRED            4 OUTER ITERATIONS 
       AND A TOTAL OF          7 INNER ITERATIONS.
    ------------------------------------------------

 NO OUTPUT CONTROL FOR STRESS PERIOD   23   TIME STEP    5
 
 SOLVING FOR HEAD 
                                                   Max.-Head-Change                         Max.-Flux-Residual
  Residual-Control   Outer-Iter.   Inner-Iter.     Column Row Layer    Maximum-Head-Change  Column Row Layer    Maximum-Flux-Residual          L2-NORM 
          0                 1           2             4    7     1       0.5947597614E-01       4    7    1         0.3134596926E+01      0.6593183552E+01
          0                 2           2             4    7     1      -0.5785444891E-02       4    7    1        -0.3134634092E+00      0.6593005366E+00
          0                 3           2             4    7     1       0.3939668189E-03       4    7    1         0.2194241295E-01      0.4614943270E-01
          0                 4           1             4    7     1      -0.1567631079E-04       4    7    1        -0.8974461139E-03      0.1887382714E-02

    ------------------------------------------------
       NWT REQUIRED            4 OUTER ITERATIONS 
       AND A TOTAL OF          7 INNER ITERATIONS.
    ------------------------------------------------

 NO OUTPUT CONTROL FOR STRESS PERIOD   23   TIME STEP    6
 
 SOLVING FOR HEAD 
                                                   Max.-Head-Change                         Max.-Flux-Residual
  Residual-Control   Outer-Iter.   Inner-Iter.     Column Row Layer    Maximum-Head-Change  Column Row Layer    Maximum-Flux-Residual          L2-NORM 
          0                 1           2             4    7     1       0.5862663700E-01       4    7    1         0.3090267864E+01      0.6468337509E+01
          0                 2           2             4    7     1      -0.5702827079E-02       4    7    1        -0.3090304825E+00      0.6468185454E+00
          0                 3           2             4    7     1       0.3883408546E-03       4    7    1         0.2163210815E-01      0.4527587912E-01
          0                 4           1             4    7     1      -0.1545244817E-04       4    7    1        -0.8847546101E-03      0.1851685354E-02

    ------------------------------------------------
       NWT REQUIRED            4 OUTER ITERATIONS 
       AND A TOTAL OF          7 INNER ITERATIONS.
    ------------------------------------------------

 NO OUTPUT CONTROL FOR STRESS PERIOD   23   TIME STEP    7
 
 SOLVING FOR HEAD 
                                                   Max.-Head-Change                         Max.-Flux-Residual
  Residual-Control   Outer-Iter.   Inner-Iter.     Column Row Layer    Maximum-Head-Change  Column Row Layer    Maximum-Flux-Residual          L2-NORM 
          0                 1           2             4    7     1       0.5778192346E-01       4    7    1         0.3046135926E+01      0.6347421920E+01
          0                 2           2             4    7     1      -0.5620659102E-02       4    7    1        -0.3046172611E+00      0.6347291680E+00
          0                 3           2             4    7     1       0.3827455238E-03       4    7    1         0.2132318278E-01      0.4442976112E-01
          0                 4           1             4    7     1      -0.1522980486E-04       4    7    1        -0.8721195441E-03      0.1817096920E-02

    ------------------------------------------------
       NWT REQUIRED            4 OUTER ITERATIONS 
       AND A TOTAL OF          7 INNER ITERATIONS.
    ------------------------------------------------

 NO OUTPUT CONTROL FOR STRESS PERIOD   23   TIME STEP    8
 
 SOLVING FOR HEAD 
                                                   Max.-Head-Change                         Max.-Flux-Residual
  Residual-Control   Outer-Iter.   Inner-Iter.     Column Row Layer    Maximum-Head-Change  Column Row Layer    Maximum-Flux-Residual          L2-NORM 
          0                 1           2             4    7     1       0.5694272354E-01       4    7    1         0.3002251112E+01      0.6230266280E+01
          0                 2           2             4    7     1      -0.5539027353E-02       4    7    1        -0.3002287455E+00      0.6230156299E+00
          0                 3           2             4    7     1       0.3771867092E-03       4    7    1         0.2101598688E-01      0.4361003664E-01
          0                 4           1             4    7     1      -0.1500861469E-04       4    7    1        -0.8595552281E-03      0.1783573312E-02

    ------------------------------------------------
       NWT REQUIRED            4 OUTER ITERATIONS 
       AND A TOTAL OF          7 INNER ITERATIONS.
    ------------------------------------------------

 NO OUTPUT CONTROL FOR STRESS PERIOD   23   TIME STEP    9
 
 SOLVING FOR HEAD 
                                                   Max.-Head-Change                         Max.-Flux-Residual
  Residual-Control   Outer-Iter.   Inner-Iter.     Column Row Layer    Maximum-Head-Change  Column Row Layer    Maximum-Flux-Residual          L2-NORM 
          0                 1           2             4    7     1       0.5610956802E-01       4    7    1         0.2958644827E+01      0.6116664343E+01
          0                 2           2             4    7     1      -0.5457983475E-02       4    7    1        -0.2958680772E+00      0.6116572034E+00
          0                 3           2             4    7     1       0.3716679265E-03       4    7    1         0.2071074032E-01      0.4281514715E-01
          0                 4           1             4    7     1      -0.1478901662E-04       4    7    1        -0.8470706107E-03      0.1751098575E-02

    ------------------------------------------------
       NWT REQUIRED            4 OUTER ITERATIONS 
       AND A TOTAL OF          7 INNER ITERATIONS.
    ------------------------------------------------

 NO OUTPUT CONTROL FOR STRESS PERIOD   23   TIME STEP   10
 
 SOLVING FOR HEAD 
                                                   Max.-Head-Change                         Max.-Flux-Residual
  Residual-Control   Outer-Iter.   Inner-Iter.     Column Row Layer    Maximum-Head-Change  Column Row Layer    Maximum-Flux-Residual          L2-NORM 
          0                 1           2             4    7     1       0.5528320339E-01       4    7    1         0.2915359231E+01      0.6006471294E+01
          0                 2           2             4    7     1      -0.5377600092E-02       4    7    1        -0.2915394729E+00      0.6006393015E+00
          0                 3           2             4    7     1       0.3661941228E-03       4    7    1         0.2040773832E-01      0.4204397751E-01
          0                 4           1             4    7     1      -0.1457120890E-04       4    7    1        -0.8346778191E-03      0.1719566129E-02

    ------------------------------------------------
       NWT REQUIRED            4 OUTER ITERATIONS 
       AND A TOTAL OF          7 INNER ITERATIONS.
    ------------------------------------------------

 NO OUTPUT CONTROL FOR STRESS PERIOD   23   TIME STEP   11
 
 SOLVING FOR HEAD 
                                                   Max.-Head-Change                         Max.-Flux-Residual
  Residual-Control   Outer-Iter.   Inner-Iter.     Column Row Layer    Maximum-Head-Change  Column Row Layer    Maximum-Flux-Residual          L2-NORM 
          0                 1           2             4    7     1       0.5446403190E-01       4    7    1         0.2872418387E+01      0.5899518571E+01
          0                 2           2             4    7     1      -0.5297916344E-02       4    7    1        -0.2872453396E+00      0.5899453381E+00
          0                 3           2             4    7     1       0.3607679618E-03       4    7    1         0.2010714933E-01      0.4129552574E-01
          0                 4           1             4    7     1      -0.1435529675E-04       4    7    1        -0.8223837021E-03      0.1688957069E-02

    ------------------------------------------------
       NWT REQUIRED            4 OUTER ITERATIONS 
       AND A TOTAL OF          7 INNER ITERATIONS.
    ------------------------------------------------

 NO OUTPUT CONTROL FOR STRESS PERIOD   23   TIME STEP   12
 
 SOLVING FOR HEAD 
                                                   Max.-Head-Change                         Max.-Flux-Residual
  Residual-Control   Outer-Iter.   Inner-Iter.     Column Row Layer    Maximum-Head-Change  Column Row Layer    Maximum-Flux-Residual          L2-NORM 
          0                 1           2             4    7     1       0.5365267989E-01       4    7    1         0.2829857796E+01      0.5795674141E+01
          0                 2           2             4    7     1      -0.5218993163E-02       4    7    1        -0.2829892280E+00      0.5795619576E+00
          0                 3           2             4    7     1       0.3553935930E-03       4    7    1         0.1980922188E-01      0.4056875039E-01
          0                 4           1             4    7     1      -0.1414144574E-04       4    7    1        -0.8101984563E-03      0.1659224911E-02

    ------------------------------------------------
       NWT REQUIRED            4 OUTER ITERATIONS 
       AND A TOTAL OF          7 INNER ITERATIONS.
    ------------------------------------------------

 NO OUTPUT CONTROL FOR STRESS PERIOD   23   TIME STEP   13
 
 SOLVING FOR HEAD 
                                                   Max.-Head-Change                         Max.-Flux-Residual
  Residual-Control   Outer-Iter.   Inner-Iter.     Column Row Layer    Maximum-Head-Change  Column Row Layer    Maximum-Flux-Residual          L2-NORM 
          0                 1           2             4    7     1       0.5284957355E-01       4    7    1         0.2787702611E+01      0.5694796878E+01
          0                 2           2             4    7     1      -0.5140872016E-02       4    7    1        -0.2787736540E+00      0.5694751985E+00
          0                 3           2             4    7     1       0.3500738405E-03       4    7    1         0.1951413211E-01      0.3986278378E-01
          0                 4           1             4    7     1      -0.1392976787E-04       4    7    1        -0.7981292670E-03      0.1630365407E-02

    ------------------------------------------------
       NWT REQUIRED            4 OUTER ITERATIONS 
       AND A TOTAL OF          7 INNER ITERATIONS.
    ------------------------------------------------

 NO OUTPUT CONTROL FOR STRESS PERIOD   23   TIME STEP   14
 
 SOLVING FOR HEAD 
                                                   Max.-Head-Change                         Max.-Flux-Residual
  Residual-Control   Outer-Iter.   Inner-Iter.     Column Row Layer    Maximum-Head-Change  Column Row Layer    Maximum-Flux-Residual          L2-NORM 
          0                 1           2             4    7     1       0.5205509181E-01       4    7    1         0.2745974930E+01      0.5596754602E+01
          0                 2           2             4    7     1      -0.5063589768E-02       4    7    1        -0.2746008279E+00      0.5596717897E+00
          0                 3           2             4    7     1       0.3448112140E-03       4    7    1         0.1922203470E-01      0.3917660640E-01
          0                 4           1             4    7     1      -0.1372036274E-04       4    7    1        -0.7861824474E-03      0.1602301136E-02

    ------------------------------------------------
       NWT REQUIRED            4 OUTER ITERATIONS 
       AND A TOTAL OF          7 INNER ITERATIONS.
    ------------------------------------------------

 NO OUTPUT CONTROL FOR STRESS PERIOD   23   TIME STEP   15
 
 SOLVING FOR HEAD 
                                                   Max.-Head-Change                         Max.-Flux-Residual
  Residual-Control   Outer-Iter.   Inner-Iter.     Column Row Layer    Maximum-Head-Change  Column Row Layer    Maximum-Flux-Residual          L2-NORM 
          0                 1           2             4    7     1       0.5126969828E-01       4    7    1         0.2704701725E+01      0.5501427124E+01
          0                 2           2             4    7     1      -0.4987191525E-02       4    7    1        -0.2704734473E+00      0.5501397540E+00
          0                 3           2             4    7     1       0.3396087853E-03       4    7    1         0.1893311850E-01      0.3850941341E-01
          0                 4           1             4    7     1      -0.1351335342E-04       4    7    1        -0.7743657661E-03      0.1575008480E-02

    ------------------------------------------------
       NWT REQUIRED            4 OUTER ITERATIONS 
       AND A TOTAL OF          7 INNER ITERATIONS.
    ------------------------------------------------

 NO OUTPUT CONTROL FOR STRESS PERIOD   23   TIME STEP   16
 
 SOLVING FOR HEAD 
                                                   Max.-Head-Change                         Max.-Flux-Residual
  Residual-Control   Outer-Iter.   Inner-Iter.     Column Row Layer    Maximum-Head-Change  Column Row Layer    Maximum-Flux-Residual          L2-NORM 
          0                 1           2             4    7     1       0.5049341031E-01       4    7    1         0.2663885061E+01      0.5408713797E+01
          0                 2           2             4    7     1      -0.4911678978E-02       4    7    1        -0.2663917190E+00      0.5408690226E+00
          0                 3           2             4    7     1       0.3344666696E-03       4    7    1         0.1864739799E-01      0.3786052326E-01
          0                 4           1             4    7     1      -0.1330874381E-04       4    7    1        -0.7626797737E-03      0.1548480770E-02

    ------------------------------------------------
       NWT REQUIRED            4 OUTER ITERATIONS 
       AND A TOTAL OF          7 INNER ITERATIONS.
    ------------------------------------------------

 NO OUTPUT CONTROL FOR STRESS PERIOD   23   TIME STEP   17
 
 SOLVING FOR HEAD 
                                                   Max.-Head-Change                         Max.-Flux-Residual
  Residual-Control   Outer-Iter.   Inner-Iter.     Column Row Layer    Maximum-Head-Change  Column Row Layer    Maximum-Flux-Residual          L2-NORM 
          0                 1           2             4    7     1       0.4972675263E-01       4    7    1         0.2623555137E+01      0.5318500209E+01
          0                 2           2             4    7     1      -0.4837103175E-02       4    7    1        -0.2623586636E+00      0.5318481920E+00
          0                 3           2             4    7     1       0.3293883429E-03       4    7    1         0.1836508457E-01      0.3722910604E-01
          0                 4           1             4    7     1      -0.1310667254E-04       4    7    1        -0.7511331519E-03      0.1522657160E-02

    ------------------------------------------------
       NWT REQUIRED            4 OUTER ITERATIONS 
       AND A TOTAL OF          7 INNER ITERATIONS.
    ------------------------------------------------

 NO OUTPUT CONTROL FOR STRESS PERIOD   23   TIME STEP   18
 
 SOLVING FOR HEAD 
                                                   Max.-Head-Change                         Max.-Flux-Residual
  Residual-Control   Outer-Iter.   Inner-Iter.     Column Row Layer    Maximum-Head-Change  Column Row Layer    Maximum-Flux-Residual          L2-NORM 
          0                 1           2             4    7     1       0.4896992702E-01       4    7    1         0.2583724512E+01      0.5230679285E+01
          0                 2           2             4    7     1      -0.4763483750E-02       4    7    1        -0.2583755369E+00      0.5230665593E+00
          0                 3           2             4    7     1       0.3243751422E-03       4    7    1         0.1808626621E-01      0.3661444670E-01
          0                 4           1             4    7     1      -0.1290719244E-04       4    7    1        -0.7397294539E-03      0.1497522692E-02

    ------------------------------------------------
       NWT REQUIRED            4 OUTER ITERATIONS 
       AND A TOTAL OF          7 INNER ITERATIONS.
    ------------------------------------------------

 NO OUTPUT CONTROL FOR STRESS PERIOD   23   TIME STEP   19
 
 SOLVING FOR HEAD 
                                                   Max.-Head-Change                         Max.-Flux-Residual
  Residual-Control   Outer-Iter.   Inner-Iter.     Column Row Layer    Maximum-Head-Change  Column Row Layer    Maximum-Flux-Residual          L2-NORM 
          0                 1           2             4    7     1       0.4822310563E-01       4    7    1         0.2544403648E+01      0.5145167234E+01
          0                 2           2             4    7     1      -0.4690837452E-02       4    7    1        -0.2544433856E+00      0.5145157511E+00
          0                 3           2             4    7     1       0.3194282078E-03       4    7    1         0.1781101611E-01      0.3601592464E-01
          0                 4           1             4    7     1      -0.1271034946E-04       4    7    1        -0.7284717117E-03      0.1473048787E-02

    ------------------------------------------------
       NWT REQUIRED            4 OUTER ITERATIONS 
       AND A TOTAL OF          7 INNER ITERATIONS.
    ------------------------------------------------

 NO OUTPUT CONTROL FOR STRESS PERIOD   23   TIME STEP   20
 
 SOLVING FOR HEAD 
                                                   Max.-Head-Change                         Max.-Flux-Residual
  Residual-Control   Outer-Iter.   Inner-Iter.     Column Row Layer    Maximum-Head-Change  Column Row Layer    Maximum-Flux-Residual          L2-NORM 
          0                 1           2             4    7     1       0.4748629751E-01       4    7    1         0.2505594141E+01      0.5061871396E+01
          0                 2           2             4    7     1      -0.4619165163E-02       4    7    1        -0.2505623697E+00      0.5061865118E+00
          0                 3           2             4    7     1       0.3145476000E-03       4    7    1         0.1753934549E-01      0.3543292112E-01
          0                 4           1             4    7     1      -0.1251614531E-04       4    7    1        -0.7173603644E-03      0.1449197925E-02

    ------------------------------------------------
       NWT REQUIRED            4 OUTER ITERATIONS 
       AND A TOTAL OF          7 INNER ITERATIONS.
    ------------------------------------------------

 NO OUTPUT CONTROL FOR STRESS PERIOD   23   TIME STEP   21
 
 SOLVING FOR HEAD 
                                                   Max.-Head-Change                         Max.-Flux-Residual
  Residual-Control   Outer-Iter.   Inner-Iter.     Column Row Layer    Maximum-Head-Change  Column Row Layer    Maximum-Flux-Residual          L2-NORM 
          0                 1           2             4    7     1       0.4675975779E-01       4    7    1         0.2467311119E+01      0.4980707027E+01
          0                 2           2             4    7     1      -0.4548491708E-02       4    7    1        -0.2467340019E+00      0.4980703290E+00
          0                 3           2             4    7     1       0.3097350088E-03       4    7    1         0.1727136025E-01      0.3486479264E-01
          0                 4           1             4    7     1      -0.1232464747E-04       4    7    1        -0.7063997373E-03      0.1425966785E-02

    ------------------------------------------------
       NWT REQUIRED            4 OUTER ITERATIONS 
       AND A TOTAL OF          7 INNER ITERATIONS.
    ------------------------------------------------

 NO OUTPUT CONTROL FOR STRESS PERIOD   23   TIME STEP   22
 
 SOLVING FOR HEAD 
                                                   Max.-Head-Change                         Max.-Flux-Residual
  Residual-Control   Outer-Iter.   Inner-Iter.     Column Row Layer    Maximum-Head-Change  Column Row Layer    Maximum-Flux-Residual          L2-NORM 
          0                 1           2             4    7     1       0.4604370225E-01       4    7    1         0.2429567812E+01      0.4901592845E+01
          0                 2           2             4    7     1      -0.4478838075E-02       4    7    1        -0.2429596058E+00      0.4901591595E+00
          0                 3           2             4    7     1       0.3049918640E-03       4    7    1         0.1700715302E-01      0.3431103036E-01
          0                 4           1             4    7     1      -0.1213591350E-04       4    7    1        -0.6955936528E-03      0.1403314270E-02

    ------------------------------------------------
       NWT REQUIRED            4 OUTER ITERATIONS 
       AND A TOTAL OF          7 INNER ITERATIONS.
    ------------------------------------------------

 NO OUTPUT CONTROL FOR STRESS PERIOD   23   TIME STEP   23
 
 SOLVING FOR HEAD 
                                                   Max.-Head-Change                         Max.-Flux-Residual
  Residual-Control   Outer-Iter.   Inner-Iter.     Column Row Layer    Maximum-Head-Change  Column Row Layer    Maximum-Flux-Residual          L2-NORM 
          0                 1           2             4    7     1       0.4533792190E-01       4    7    1         0.2392353418E+01      0.4824457422E+01
          0                 2           2             4    7     1      -0.4410183941E-02       4    7    1        -0.2392381009E+00      0.4824458175E+00
          0                 3           2             4    7     1       0.3003167814E-03       4    7    1         0.1674664820E-01      0.3377111152E-01
          0                 4           1             4    7     1      -0.1194988745E-04       4    7    1        -0.6849389779E-03      0.1381237507E-02

    ------------------------------------------------
       NWT REQUIRED            4 OUTER ITERATIONS 
       AND A TOTAL OF          7 INNER ITERATIONS.
    ------------------------------------------------

 NO OUTPUT CONTROL FOR STRESS PERIOD   23   TIME STEP   24
 
 SOLVING FOR HEAD 
                                                   Max.-Head-Change                         Max.-Flux-Residual
  Residual-Control   Outer-Iter.   Inner-Iter.     Column Row Layer    Maximum-Head-Change  Column Row Layer    Maximum-Flux-Residual          L2-NORM 
          0                 1           2             4    7     1       0.4464286369E-01       4    7    1         0.2355693756E+01      0.4749220711E+01
          0                 2           2             4    7     1      -0.4342572783E-02       4    7    1        -0.2355720697E+00      0.4749223170E+00
          0                 3           2             4    7     1       0.2957127213E-03       4    7    1         0.1649002650E-01      0.3324448559E-01
          0                 4           1             4    7     1      -0.1176668766E-04       4    7    1        -0.6744431416E-03      0.1359704036E-02

    ------------------------------------------------
       NWT REQUIRED            4 OUTER ITERATIONS 
       AND A TOTAL OF          7 INNER ITERATIONS.
    ------------------------------------------------

 NO OUTPUT CONTROL FOR STRESS PERIOD   23   TIME STEP   25
 
 SOLVING FOR HEAD 
                                                   Max.-Head-Change                         Max.-Flux-Residual
  Residual-Control   Outer-Iter.   Inner-Iter.     Column Row Layer    Maximum-Head-Change  Column Row Layer    Maximum-Flux-Residual          L2-NORM 
          0                 1           2             4    7     1       0.4395826976E-01       4    7    1         0.2319575343E+01      0.4675830028E+01
          0                 2           2             4    7     1      -0.4275979521E-02       4    7    1        -0.2319601639E+00      0.4675833979E+00
          0                 3           2             4    7     1       0.2911779767E-03       4    7    1         0.1623719362E-01      0.3273077049E-01
          0                 4           1             4    7     1      -0.1158624610E-04       4    7    1        -0.6641022710E-03      0.1338683293E-02

    ------------------------------------------------
       NWT REQUIRED            4 OUTER ITERATIONS 
       AND A TOTAL OF          7 INNER ITERATIONS.
    ------------------------------------------------

 NO OUTPUT CONTROL FOR STRESS PERIOD   23   TIME STEP   26
 
 SOLVING FOR HEAD 
                                                   Max.-Head-Change                         Max.-Flux-Residual
  Residual-Control   Outer-Iter.   Inner-Iter.     Column Row Layer    Maximum-Head-Change  Column Row Layer    Maximum-Flux-Residual          L2-NORM 
          0                 1           2             4    7     1       0.4328413897E-01       4    7    1         0.2283999473E+01      0.4604194937E+01
          0                 2           2             4    7     1      -0.4210404044E-02       4    7    1        -0.2284025129E+00      0.4604200160E+00
          0                 3           2             4    7     1       0.2867125388E-03       4    7    1         0.1598815854E-01      0.3222934413E-01
          0                 4           1             4    7     1      -0.1140856184E-04       4    7    1        -0.6539167148E-03      0.1318176806E-02

    ------------------------------------------------
       NWT REQUIRED            4 OUTER ITERATIONS 
       AND A TOTAL OF          7 INNER ITERATIONS.
    ------------------------------------------------

 NO OUTPUT CONTROL FOR STRESS PERIOD   23   TIME STEP   27
 
 SOLVING FOR HEAD 
                                                   Max.-Head-Change                         Max.-Flux-Residual
  Residual-Control   Outer-Iter.   Inner-Iter.     Column Row Layer    Maximum-Head-Change  Column Row Layer    Maximum-Flux-Residual          L2-NORM 
          0                 1           2             4    7     1       0.4262072654E-01       4    7    1         0.2248980755E+01      0.4534279911E+01
          0                 2           2             4    7     1      -0.4145871183E-02       4    7    1        -0.2249005779E+00      0.4534285669E+00
          0                 3           2             4    7     1       0.2823180994E-03       4    7    1         0.1574302358E-01      0.3173996657E-01
          0                 4           1             4    7     1      -0.1123370305E-04       4    7    1        -0.6438906853E-03      0.1298170321E-02

    ------------------------------------------------
       NWT REQUIRED            4 OUTER ITERATIONS 
       AND A TOTAL OF          7 INNER ITERATIONS.
    ------------------------------------------------

 NO OUTPUT CONTROL FOR STRESS PERIOD   23   TIME STEP   28
 
 SOLVING FOR HEAD 
                                                   Max.-Head-Change                         Max.-Flux-Residual
  Residual-Control   Outer-Iter.   Inner-Iter.     Column Row Layer    Maximum-Head-Change  Column Row Layer    Maximum-Flux-Residual          L2-NORM 
          0                 1           2             4    7     1       0.4196785576E-01       4    7    1         0.2214510422E+01      0.4466022383E+01
          0                 2           2             4    7     1      -0.4082363747E-02       4    7    1        -0.2214534822E+00      0.4465968671E+00
          0                 3           2             4    7     1       0.2779934869E-03       4    7    1         0.1550172736E-01      0.3126174230E-01
          0                 4           1             4    7     1      -0.1106162263E-04       4    7    1        -0.6340216332E-03      0.1278605640E-02

    ------------------------------------------------
       NWT REQUIRED            4 OUTER ITERATIONS 
       AND A TOTAL OF          7 INNER ITERATIONS.
    ------------------------------------------------

 NO OUTPUT CONTROL FOR STRESS PERIOD   23   TIME STEP   29
 
 SOLVING FOR HEAD 
                                                   Max.-Head-Change                         Max.-Flux-Residual
  Residual-Control   Outer-Iter.   Inner-Iter.     Column Row Layer    Maximum-Head-Change  Column Row Layer    Maximum-Flux-Residual          L2-NORM 
          0                 1           2             4    7     1       0.4132548032E-01       4    7    1         0.2180586646E+01      0.4399363072E+01
          0                 2           2             4    7     1      -0.4019877235E-02       4    7    1        -0.2180610430E+00      0.4399370685E+00
          0                 3           2             4    7     1       0.2737383960E-03       4    7    1         0.1526425709E-01      0.3079547409E-01
          0                 4           1             4    7     1      -0.1089230873E-04       4    7    1        -0.6243090957E-03      0.1259715627E-02

    ------------------------------------------------
       NWT REQUIRED            4 OUTER ITERATIONS 
       AND A TOTAL OF          7 INNER ITERATIONS.
    ------------------------------------------------

 NO OUTPUT CONTROL FOR STRESS PERIOD   23   TIME STEP   30



 STREAM LISTING     PERIOD     23   STEP       30

 LAYER ROW COL. STREAM  RCH.  FLOW INTO     FLOW TO   FLOW OUT OF   OVRLND.     DIRECT     STREAM       STREAM     STREAM     STREAM   STREAMBED  STREAMBED
                SEG.NO.  NO.  STRM. RCH.    AQUIFER    STRM. RCH.    RUNOFF     PRECIP       ET          HEAD       DEPTH      WIDTH   CONDCTNC.   GRADIENT

   1    1    1     1     1    1.6500E+01  1.9759E-01   1.6303E+01  0.000E+00  0.000E+00  0.000E+00  1.09409E+03  1.039E+00  1.087E+01  4.893E-02  1.346E+00
   1    2    2     1     2    1.6303E+01  3.0466E-01   1.5998E+01  0.000E+00  0.000E+00  0.000E+00  1.08909E+03  1.034E+00  1.079E+01  7.552E-02  1.345E+00
   1    3    3     1     3    1.5998E+01  2.5853E-01   1.5739E+01  0.000E+00  0.000E+00  0.000E+00  1.08345E+03  1.029E+00  1.070E+01  6.417E-02  1.343E+00
   1    3    4     1     4    1.5739E+01  2.3700E-01   1.5502E+01  0.000E+00  0.000E+00  0.000E+00  1.07843E+03  1.024E+00  1.061E+01  5.890E-02  1.341E+00
   1    4    5     2     1    1.3502E+01  2.9865E-01   1.3204E+01  0.000E+00  0.000E+00  0.000E+00  1.07276E+03  8.289E-01  1.200E+01  7.800E-02  1.276E+00
   1    5    6     2     2    1.3204E+01  2.2914E-01   1.2975E+01  0.000E+00  0.000E+00  0.000E+00  1.06733E+03  8.190E-01  1.200E+01  6.000E-02  1.273E+00
   1    6    6     2     3    1.2975E+01  2.2862E-01   1.2746E+01  0.000E+00  0.000E+00  0.000E+00  1.06260E+03  8.104E-01  1.200E+01  6.000E-02  1.270E+00
   1    7    6     2     4    1.2746E+01  2.2810E-01   1.2518E+01  0.000E+00  0.000E+00  0.000E+00  1.05788E+03  8.017E-01  1.200E+01  6.000E-02  1.267E+00
   1    8    6     2     5    1.2518E+01  2.2758E-01   1.2290E+01  0.000E+00  0.000E+00  0.000E+00  1.05315E+03  7.930E-01  1.200E+01  6.000E-02  1.264E+00
   1    3    5     3     1    2.0000E+00  2.8252E-01   1.7175E+00  0.000E+00  0.000E+00  0.000E+00  1.07555E+03  1.909E+00  9.636E+00  7.227E-02  1.955E+00
   1    3    6     3     2    1.7175E+00  2.4905E-01   1.4684E+00  0.000E+00  0.000E+00  0.000E+00  1.07264E+03  1.727E+00  8.909E+00  6.682E-02  1.864E+00
   1    3    7     3     3    1.4684E+00  1.9718E-01   1.2712E+00  0.000E+00  0.000E+00  0.000E+00  1.06987E+03  1.555E+00  8.218E+00  5.547E-02  1.777E+00
   1    4    8     3     4    1.2712E+00  2.2567E-01   1.0456E+00  0.000E+00  0.000E+00  0.000E+00  1.06682E+03  1.364E+00  7.455E+00  6.709E-02  1.682E+00
   1    5    8     3     5    1.0456E+00  1.5790E-01   8.8768E-01  0.000E+00  0.000E+00  0.000E+00  1.06362E+03  1.164E+00  6.655E+00  4.991E-02  1.582E+00
   1    6    8     3     6    8.8768E-01  5.5980E-02   8.3170E-01  0.000E+00  0.000E+00  0.000E+00  1.06158E+03  1.036E+00  6.145E+00  1.844E-02  1.518E+00
   1    5   10     4     1    1.0000E+01  9.0919E-02   9.9091E+00  0.000E+00  0.000E+00  0.000E+00  1.07836E+03  6.368E-01  1.000E+01  2.500E-02  1.212E+00
   1    5    9     4     2    9.9091E+00  1.8158E-01   9.7275E+00  0.000E+00  0.000E+00  0.000E+00  1.07154E+03  6.315E-01  1.000E+01  5.000E-02  1.211E+00
   1    6    8     4     3    9.7275E+00  1.2689E-01   9.6006E+00  0.000E+00  0.000E+00  0.000E+00  1.06381E+03  6.256E-01  1.000E+01  3.500E-02  1.209E+00
   1    6    8     5     1    1.0432E+01  2.2686E-01   1.0205E+01  0.000E+00  0.000E+00  0.000E+00  1.05868E+03  6.790E-01  1.542E+01  6.166E-02  1.226E+00
   1    7    7     5     2    1.0205E+01  2.7894E-01   9.9265E+00  0.000E+00  0.000E+00  0.000E+00  1.05417E+03  6.732E-01  1.519E+01  7.594E-02  1.224E+00
   1    8    7     5     3    9.9265E+00  1.9221E-01   9.7343E+00  0.000E+00  0.000E+00  0.000E+00  1.04992E+03  6.676E-01  1.497E+01  5.241E-02  1.223E+00
   1    8    6     5     4    9.7343E+00  1.3577E-01   9.5985E+00  0.000E+00  0.000E+00  0.000E+00  1.04691E+03  6.637E-01  1.482E+01  3.706E-02  1.221E+00
   1    9    6     6     1    2.1889E+01  2.4742E-01   2.1641E+01  0.000E+00  0.000E+00  0.000E+00  1.04385E+03  1.124E+00  1.200E+01  6.000E-02  1.375E+00
   1   10    7     6     2    2.1641E+01  2.4696E-01   2.1395E+01  0.000E+00  0.000E+00  0.000E+00  1.03930E+03  1.116E+00  1.200E+01  6.000E-02  1.372E+00
   1   11    7     6     3    2.1395E+01  2.4650E-01   2.1148E+01  0.000E+00  0.000E+00  0.000E+00  1.03474E+03  1.108E+00  1.200E+01  6.000E-02  1.369E+00
   1   12    7     6     4    2.1148E+01  2.4603E-01   2.0902E+01  0.000E+00  0.000E+00  0.000E+00  1.03019E+03  1.101E+00  1.200E+01  6.000E-02  1.367E+00
   1   13    7     6     5    2.0902E+01 -2.0415E-02   2.0922E+01  0.000E+00  0.000E+00  0.000E+00  1.02701E+03  1.097E+00  1.200E+01  2.400E-01 -2.835E-02
   1   14    9     7     1    1.5000E+02  1.3365E+00   1.4866E+02  0.000E+00  0.000E+00  0.000E+00  1.03987E+03  2.288E+00  5.529E+01  5.593E-01  7.965E-01
   1   13    8     7     2    1.4866E+02  1.8294E+00   1.4683E+02  0.000E+00  0.000E+00  0.000E+00  1.03478E+03  2.279E+00  5.526E+01  6.148E-01  9.919E-01
   1   13    7     7     3    1.4683E+02  1.4513E+00   1.4538E+02  0.000E+00  0.000E+00  0.000E+00  1.02969E+03  2.271E+00  5.522E+01  5.585E-01  8.662E-01
   1   13    6     8     1    1.6631E+02  8.7706E-01   1.6543E+02  0.000E+00  0.000E+00  0.000E+00  1.02480E+03  2.925E+00  4.241E+01  4.322E-01  6.764E-01
   1   13    5     8     2    1.6543E+02  1.3489E-01   1.6529E+02  0.000E+00  0.000E+00  0.000E+00  1.01855E+03  2.922E+00  4.237E+01  4.317E-01  1.041E-01
   1   13    4     8     3    1.6529E+02 -2.5686E+00   1.6786E+02  0.000E+00  0.000E+00  0.000E+00  1.01230E+03  2.930E+00  4.248E+01  4.329E+00 -1.978E-01
   1   13    3     8     4    1.6786E+02 -3.7013E+00   1.7156E+02  0.000E+00  0.000E+00  0.000E+00  1.00608E+03  2.950E+00  4.278E+01  4.359E+00 -2.830E-01
   1   13    2     8     5    1.7156E+02 -2.5695E+00   1.7413E+02  0.000E+00  0.000E+00  0.000E+00  9.99846E+02  2.971E+00  4.307E+01  4.389E+00 -1.951E-01
   1   13    1     8     6    1.7413E+02 -1.9580E+00   1.7609E+02  0.000E+00  0.000E+00  0.000E+00  9.94860E+02  2.985E+00  4.329E+01  2.647E+00 -2.466E-01
   1    8    6     9     1    0.0000E+00  0.0000E+00   0.0000E+00  0.000E+00  0.000E+00  0.000E+00  1.07875E+03  0.000E+00  4.000E+00  0.000E+00  1.000E+00
   1    8    5     9     2    0.0000E+00  0.0000E+00   0.0000E+00  0.000E+00  0.000E+00  0.000E+00  1.07825E+03  0.000E+00  4.000E+00  0.000E+00  1.000E+00





UNSATURATED ZONE PACKAGE VOLUMETRIC BUDGET FOR  TIME STEP    30 STRESS PERIOD   23
  ------------------------------------------------------------------------------



     CUMULATIVE VOLUMES      L**3       RATES FOR THIS TIME STEP      L**3/T
     ------------------                 ------------------------

           IN:                                      IN:
           ---                                      ---
        INFILTRATION =   988271012.6429          INFILTRATION =           0.8475

          OUT:                                     OUT:
          ----                                     ----
              UZF ET =   856252321.2538                UZF ET =           0.8475
        UZF RECHARGE =       73224.0000          UZF RECHARGE =       0.0000E+00

            IN - OUT =   131945467.3891              IN - OUT =       0.0000E+00

          STORAGE:                                 STORAGE:
          --------                                 --------
      STORAGE CHANGE =   131946743.5359        STORAGE CHANGE =      -8.4656E-14

 PERCENT DISCREPANCY IS DIFFERENCE BETWEEN IN-OUT MINUS CHANGE IN STORAGE
 DIVIDED BY THE AVERAGE OF IN AND OUT TIMES 100

 PERCENT DISCREPANCY =          -0.00     PERCENT DISCREPANCY =           0.00






1
  VOLUMETRIC BUDGET FOR AGRICULTURAL FIELDS AT  END OF TIME STEP   30, STRESS PERIOD  23
  ------------------------------------------------------------------------------

     CUMULATIVE VOLUMES      L**3       RATES FOR THIS TIME STEP      L**3/T
     ------------------                 ------------------------

           IN:                                      IN:
           ---                                      ---
               AG WELLS  =   328055200.0000                 AG WELLS  =           0.0000
      DIVERSION SEGMENTS =   611151808.0000        DIVERSION SEGMENTS =           0.0000
       IRRIGATION PONDS  =           0.0000         IRRIGATION PONDS  =           0.0000
           GW IRRIGATION =           0.0000             GW IRRIGATION =           0.0000
           SW IRRIGATION =           0.0000             SW IRRIGATION =           0.0000
        SYSTEM LOSSES GW =           0.0000          SYSTEM LOSSES GW =           0.0000
        SYSTEM LOSSES SW =           0.0000          SYSTEM LOSSES SW =           0.0000

                TOTAL IN =   939207040.0000                  TOTAL IN =           0.0000

          OUT:                                     OUT:
          ----                                     ----
               AG WELLS  =           0.0000                 AG WELLS  =           0.0000
      DIVERSION SEGMENTS =           0.0000        DIVERSION SEGMENTS =           0.0000
       IRRIGATION PONDS  =           0.0000         IRRIGATION PONDS  =           0.0000
           GW IRRIGATION =   328055200.0000             GW IRRIGATION =           0.0000
           SW IRRIGATION =   611163648.0000             SW IRRIGATION =           0.0000
        SYSTEM LOSSES GW =           0.0000          SYSTEM LOSSES GW =           0.0000
        SYSTEM LOSSES SW =           0.0000          SYSTEM LOSSES SW =           0.0000

               TOTAL OUT =   939218816.0000                 TOTAL OUT =           0.0000

                IN - OUT =      -11776.0000                  IN - OUT =           0.0000

     PERCENT DISCREPANCY =          -0.00         PERCENT DISCREPANCY =           0.00



1
  VOLUMETRIC BUDGET FOR ENTIRE MODEL AT END OF TIME STEP   30, STRESS PERIOD  23
  ------------------------------------------------------------------------------

     CUMULATIVE VOLUMES      L**3       RATES FOR THIS TIME STEP      L**3/T
     ------------------                 ------------------------

           IN:                                      IN:
           ---                                      ---
             STORAGE     =   498039104.0000               STORAGE     =          10.5265
       CONSTANT HEAD     =           0.0000         CONSTANT HEAD     =           0.0000
     HEAD DEP BOUNDS     =    16558655.0000       HEAD DEP BOUNDS     =           0.2858
      STREAM LEAKAGE     =   690180416.0000        STREAM LEAKAGE     =          11.2274
        UZF RECHARGE     =       73223.9531          UZF RECHARGE     =           0.0000
               GW ET     =           0.0000                 GW ET     =           0.0000
     SURFACE LEAKAGE     =           0.0000       SURFACE LEAKAGE     =           0.0000
           AG WELLS      =           0.0000             AG WELLS      =           0.0000

                TOTAL IN =  1204851456.0000                  TOTAL IN =          22.0397

          OUT:                                     OUT:
          ----                                     ----
             STORAGE     =   227740832.0000               STORAGE     =          10.9331
       CONSTANT HEAD     =           0.0000         CONSTANT HEAD     =           0.0000
     HEAD DEP BOUNDS     =    16847000.0000       HEAD DEP BOUNDS     =           0.2888
      STREAM LEAKAGE     =   629885312.0000        STREAM LEAKAGE     =          10.8178
        UZF RECHARGE     =           0.0000          UZF RECHARGE     =           0.0000
               GW ET     =     2326724.7500                 GW ET     =           0.0000
     SURFACE LEAKAGE     =           0.0000       SURFACE LEAKAGE     =           0.0000
           AG WELLS      =   328055200.0000             AG WELLS      =           0.0000

               TOTAL OUT =  1204855040.0000                 TOTAL OUT =          22.0397

                IN - OUT =       -3584.0000                  IN - OUT =       5.7220E-06

     PERCENT DISCREPANCY =          -0.00         PERCENT DISCREPANCY =           0.00






         TIME SUMMARY AT END OF TIME STEP   30 IN STRESS PERIOD   23
                    SECONDS     MINUTES      HOURS       DAYS        YEARS
                    -----------------------------------------------------------
   TIME STEP LENGTH  87667.      1461.1      24.352      1.0147     2.77799E-03
 STRESS PERIOD TIME 2.63000E+06  43833.      730.56      30.440     8.33397E-02
         TOTAL TIME 5.79467E+07 9.65778E+05  16096.      670.68      1.8362    
1
1
                            STRESS PERIOD NO.   24, LENGTH =   2630000.    
                            -----------------------------------------------

                              NUMBER OF TIME STEPS =    30

                               MULTIPLIER FOR DELT =     1.000

                            INITIAL TIME STEP SIZE =   87666.66    

 REUSING NON-PARAMETER GHB CELLS FROM LAST STRESS PERIOD

      2 GHB CELLS

 REUSING STREAM SEGMENT DATA FROM LAST STRESS PERIOD



            AREAL INFILTRATION RATE
 READING ON UNIT   19 WITH FORMAT: (FREE)              

            1           2           3           4           5           6           7           8           9          10
 ........................................................................................................................
   1   1.0000E-10  2.0000E-10   0.000       0.000       0.000       0.000       0.000       0.000       0.000       0.000    
   2   2.0000E-10  1.0000E-10  2.0000E-10   0.000       0.000      8.0000E-10  8.0000E-10  5.0000E-10   0.000       0.000    
   3    0.000      5.0000E-10  1.0000E-10  1.0000E-10  8.0000E-10  8.0000E-10  5.0000E-10  5.0000E-10   0.000       0.000    
   4   8.0000E-10  5.0000E-10  1.0000E-10  1.0000E-10  1.0000E-10  1.0000E-10  1.0000E-10  1.0000E-10  2.0000E-10   0.000    
   5   8.0000E-10  5.0000E-10  1.0000E-10  1.0000E-10  1.0000E-10  1.0000E-10  1.0000E-10  1.0000E-10  1.0000E-10  1.0000E-10
   6   8.0000E-10  5.0000E-10  5.0000E-10  2.0000E-10  2.0000E-10  1.0000E-10  1.0000E-10  1.0000E-10  1.0000E-10  5.0000E-10
   7   8.0000E-10  5.0000E-10  5.0000E-10  2.0000E-10  2.0000E-10  1.0000E-10  1.0000E-10  2.0000E-10  2.0000E-10   0.000    
   8    0.000      5.0000E-10  5.0000E-10  2.0000E-10  2.0000E-10  1.0000E-10  1.0000E-10  2.0000E-10  5.0000E-10   0.000    
   9    0.000      5.0000E-10  5.0000E-10  2.0000E-10  2.0000E-10  1.0000E-10  1.0000E-10  2.0000E-10  5.0000E-10   0.000    
  10    0.000      5.0000E-10  5.0000E-10  2.0000E-10  2.0000E-10  1.0000E-10  1.0000E-10  2.0000E-10  5.0000E-10  8.0000E-10
  11    0.000      1.0000E-10  1.0000E-10  1.0000E-10  1.0000E-10  1.0000E-10  1.0000E-10  2.0000E-10  5.0000E-10   0.000    
  12   1.0000E-10  1.0000E-10  1.0000E-10  1.0000E-10  1.0000E-10  1.0000E-10  1.0000E-10  1.0000E-10  2.0000E-10   0.000    
  13   1.0000E-10  1.0000E-10  2.0000E-10  2.0000E-10  2.0000E-10  2.0000E-10  2.0000E-10  1.0000E-10  1.0000E-10   0.000    
  14    0.000      2.0000E-10  5.0000E-10  5.0000E-10  5.0000E-10  5.0000E-10  5.0000E-10  2.0000E-10  1.0000E-10   0.000    
  15    0.000       0.000      8.0000E-10  8.0000E-10  8.0000E-10  8.0000E-10   0.000       0.000       0.000       0.000    

                  ET RATE =  5.000000E-10

 USING ET EXTINCTION DEPTH FROM PREVIOUS STRESS PERIOD. CURRENT PERIOD IS:      24

 USING EXTINCTION WATER CONTENT FROM PREVIOUS STRESS PERIOD. CURRENT PERIOD IS:      24

 USING AIR ENTRY PRESSURE FROM PREVIOUS STRESS PERIOD. CURRENT PERIOD IS:      24

 USING ROOT PRESSURE HEAD FROM PREVIOUS STRESS PERIOD. CURRENT PERIOD IS:      24

 USING ROOT ACTIVITY FROM PREVIOUS STRESS PERIOD. CURRENT PERIOD IS:      24

 PROCESSING AG STRESS PERIOD DATA

 READING AG STRESS PERIOD DATA

 READING IRRIGATION SEGMENT

 READING IRRIGATION WELL

 READING SUPPLEMENTAL WELL

 NO IRRPOND OR REUSING IRRPOND DATA FROM LAST STRESS PERIOD

 END PROCESSING AG STRESS PERIOD DATA OPTIONS
 
 SOLVING FOR HEAD 
                                                   Max.-Head-Change                         Max.-Flux-Residual
  Residual-Control   Outer-Iter.   Inner-Iter.     Column Row Layer    Maximum-Head-Change  Column Row Layer    Maximum-Flux-Residual          L2-NORM 
          0                 1           2             4    7     1       0.4069352954E-01       4    7    1         0.2147207025E+01      0.4334657704E+01
          0                 2           2             4    7     1      -0.3958404771E-02       4    7    1        -0.2147230203E+00      0.4334667750E+00
          0                 3           2             4    7     1       0.2695523578E-03       4    7    1         0.1503059598E-01      0.3034267412E-01
          0                 4           1             4    7     1      -0.1072574189E-04       4    7    1        -0.6147523372E-03      0.1241019783E-02

    ------------------------------------------------
       NWT REQUIRED            4 OUTER ITERATIONS 
       AND A TOTAL OF          7 INNER ITERATIONS.
    ------------------------------------------------

 NO OUTPUT CONTROL FOR STRESS PERIOD   24   TIME STEP    1
 
 SOLVING FOR HEAD 
                                                   Max.-Head-Change                         Max.-Flux-Residual
  Residual-Control   Outer-Iter.   Inner-Iter.     Column Row Layer    Maximum-Head-Change  Column Row Layer    Maximum-Flux-Residual          L2-NORM 
          0                 1           2             4    7     1       0.4007206123E-01       4    7    1         0.2114375233E+01      0.4271768346E+01
          0                 2           2             4    7     1      -0.3897951980E-02       4    7    1        -0.2114397815E+00      0.4271778126E+00
          0                 3           2             4    7     1       0.2654357553E-03       4    7    1         0.1480076972E-01      0.2990244490E-01
          0                 4           1             4    7     1      -0.1056193880E-04       4    7    1        -0.6053524321E-03      0.1223009036E-02

    ------------------------------------------------
       NWT REQUIRED            4 OUTER ITERATIONS 
       AND A TOTAL OF          7 INNER ITERATIONS.
    ------------------------------------------------

 NO OUTPUT CONTROL FOR STRESS PERIOD   24   TIME STEP    2
 
 SOLVING FOR HEAD 
                                                   Max.-Head-Change                         Max.-Flux-Residual
  Residual-Control   Outer-Iter.   Inner-Iter.     Column Row Layer    Maximum-Head-Change  Column Row Layer    Maximum-Flux-Residual          L2-NORM 
          0                 1           2             4    7     1       0.3946098965E-01       4    7    1         0.2082086931E+01      0.4209581198E+01
          0                 2           2             4    7     1      -0.3838510524E-02       4    7    1        -0.2082108927E+00      0.4209590719E+00
          0                 3           2             4    7     1       0.2613880207E-03       4    7    1         0.1457474796E-01      0.2946713274E-01
          0                 4           1             4    7     1      -0.1040087529E-04       4    7    1        -0.5961081233E-03      0.1205207467E-02

    ------------------------------------------------
       NWT REQUIRED            4 OUTER ITERATIONS 
       AND A TOTAL OF          7 INNER ITERATIONS.
    ------------------------------------------------

 NO OUTPUT CONTROL FOR STRESS PERIOD   24   TIME STEP    3
 
 SOLVING FOR HEAD 
                                                   Max.-Head-Change                         Max.-Flux-Residual
  Residual-Control   Outer-Iter.   Inner-Iter.     Column Row Layer    Maximum-Head-Change  Column Row Layer    Maximum-Flux-Residual          L2-NORM 
          0                 1           2             4    7     1       0.3886021368E-01       4    7    1         0.2050337674E+01      0.4148792588E+01
          0                 2           2             4    7     1      -0.3780070565E-02       4    7    1        -0.2050359096E+00      0.4148801882E+00
          0                 3           2             4    7     1       0.2574084844E-03       4    7    1         0.1435249961E-01      0.2904161214E-01
          0                 4           1             4    7     1      -0.1024252556E-04       4    7    1        -0.5870181340E-03      0.1187805092E-02

    ------------------------------------------------
       NWT REQUIRED            4 OUTER ITERATIONS 
       AND A TOTAL OF          7 INNER ITERATIONS.
    ------------------------------------------------

 NO OUTPUT CONTROL FOR STRESS PERIOD   24   TIME STEP    4
 
 SOLVING FOR HEAD 
                                                   Max.-Head-Change                         Max.-Flux-Residual
  Residual-Control   Outer-Iter.   Inner-Iter.     Column Row Layer    Maximum-Head-Change  Column Row Layer    Maximum-Flux-Residual          L2-NORM 
          0                 1           2             4    7     1       0.3826962768E-01       4    7    1         0.2019122220E+01      0.4089361587E+01
          0                 2           2             4    7     1      -0.3722618129E-02       4    7    1        -0.2019143079E+00      0.4088018135E+00
          0                 3           2             4    7     1       0.2534961946E-03       4    7    1         0.1413398793E-01      0.2861611896E-01
          0                 4           1             4    7     1      -0.1008685198E-04       4    7    1        -0.5780809965E-03      0.1170399214E-02

    ------------------------------------------------
       NWT REQUIRED            4 OUTER ITERATIONS 
       AND A TOTAL OF          7 INNER ITERATIONS.
    ------------------------------------------------

 NO OUTPUT CONTROL FOR STRESS PERIOD   24   TIME STEP    5
 
 SOLVING FOR HEAD 
                                                   Max.-Head-Change                         Max.-Flux-Residual
  Residual-Control   Outer-Iter.   Inner-Iter.     Column Row Layer    Maximum-Head-Change  Column Row Layer    Maximum-Flux-Residual          L2-NORM 
          0                 1           2             4    7     1       0.3768914219E-01       4    7    1         0.1988435289E+01      0.4031348960E+01
          0                 2           2             4    7     1      -0.3666155616E-02       4    7    1        -0.1988455595E+00      0.4031359369E+00
          0                 3           2             4    7     1       0.2496513148E-03       4    7    1         0.1391917597E-01      0.2821951046E-01
          0                 4           1             4    7     1      -0.9933860752E-05       4    7    1        -0.5692951786E-03      0.1154178268E-02

    ------------------------------------------------
       NWT REQUIRED            4 OUTER ITERATIONS 
       AND A TOTAL OF          7 INNER ITERATIONS.
    ------------------------------------------------

 NO OUTPUT CONTROL FOR STRESS PERIOD   24   TIME STEP    6
 
 SOLVING FOR HEAD 
                                                   Max.-Head-Change                         Max.-Flux-Residual
  Residual-Control   Outer-Iter.   Inner-Iter.     Column Row Layer    Maximum-Head-Change  Column Row Layer    Maximum-Flux-Residual          L2-NORM 
          0                 1           2             4    7     1       0.3711862753E-01       4    7    1         0.1958271650E+01      0.3974715059E+01
          0                 2           2             4    7     1      -0.3610659305E-02       4    7    1        -0.1958291415E+00      0.3974725157E+00
          0                 3           2             4    7     1       0.2458722295E-03       4    7    1         0.1370802714E-01      0.2782307089E-01
          0                 4           1             4    7     1      -0.9783487642E-05       4    7    1        -0.5606591803E-03      0.1137966605E-02

    ------------------------------------------------
       NWT REQUIRED            4 OUTER ITERATIONS 
       AND A TOTAL OF          7 INNER ITERATIONS.
    ------------------------------------------------

 NO OUTPUT CONTROL FOR STRESS PERIOD   24   TIME STEP    7
 
 SOLVING FOR HEAD 
                                                   Max.-Head-Change                         Max.-Flux-Residual
  Residual-Control   Outer-Iter.   Inner-Iter.     Column Row Layer    Maximum-Head-Change  Column Row Layer    Maximum-Flux-Residual          L2-NORM 
          0                 1           2             4    7     1       0.3655810820E-01       4    7    1         0.1928632513E+01      0.3919311910E+01
          0                 2           2             4    7     1      -0.3556135285E-02       4    7    1        -0.1928651749E+00      0.3919321761E+00
          0                 3           2             4    7     1       0.2421593533E-03       4    7    1         0.1350054987E-01      0.2743525100E-01
          0                 4           1             4    7     1      -0.9635748652E-05       4    7    1        -0.5521733465E-03      0.1122125633E-02

    ------------------------------------------------
       NWT REQUIRED            4 OUTER ITERATIONS 
       AND A TOTAL OF          7 INNER ITERATIONS.
    ------------------------------------------------

 NO OUTPUT CONTROL FOR STRESS PERIOD   24   TIME STEP    8
 
 SOLVING FOR HEAD 
                                                   Max.-Head-Change                         Max.-Flux-Residual
  Residual-Control   Outer-Iter.   Inner-Iter.     Column Row Layer    Maximum-Head-Change  Column Row Layer    Maximum-Flux-Residual          L2-NORM 
          0                 1           2             4    7     1       0.3600744877E-01       4    7    1         0.1899511612E+01      0.3865082515E+01
          0                 2           2             4    7     1      -0.3502570382E-02       4    7    1        -0.1899530331E+00      0.3865091976E+00
          0                 3           2             4    7     1       0.2385117893E-03       4    7    1         0.1329670035E-01      0.2705564090E-01
          0                 4           1             4    7     1      -0.9490608438E-05       4    7    1        -0.5438358794E-03      0.1106577414E-02

    ------------------------------------------------
       NWT REQUIRED            4 OUTER ITERATIONS 
       AND A TOTAL OF          7 INNER ITERATIONS.
    ------------------------------------------------

 NO OUTPUT CONTROL FOR STRESS PERIOD   24   TIME STEP    9
 
 SOLVING FOR HEAD 
                                                   Max.-Head-Change                         Max.-Flux-Residual
  Residual-Control   Outer-Iter.   Inner-Iter.     Column Row Layer    Maximum-Head-Change  Column Row Layer    Maximum-Flux-Residual          L2-NORM 
          0                 1           2             4    7     1       0.3546637839E-01       4    7    1         0.1870894584E+01      0.3812004073E+01
          0                 2           2             4    7     1      -0.3449938248E-02       4    7    1        -0.1870912797E+00      0.3812013177E+00
          0                 3           2             4    7     1       0.2349277433E-03       4    7    1         0.1309637800E-01      0.2668408129E-01
          0                 4           1             4    7     1      -0.9347995850E-05       4    7    1        -0.5356426800E-03      0.1091375691E-02

    ------------------------------------------------
       NWT REQUIRED            4 OUTER ITERATIONS 
       AND A TOTAL OF          7 INNER ITERATIONS.
    ------------------------------------------------

 NO OUTPUT CONTROL FOR STRESS PERIOD   24   TIME STEP   10
 
 SOLVING FOR HEAD 
                                                   Max.-Head-Change                         Max.-Flux-Residual
  Residual-Control   Outer-Iter.   Inner-Iter.     Column Row Layer    Maximum-Head-Change  Column Row Layer    Maximum-Flux-Residual          L2-NORM 
          0                 1           2             4    7     1       0.3493489893E-01       4    7    1         0.1842782067E+01      0.3760042143E+01
          0                 2           2             4    7     1      -0.3398239067E-02       4    7    1        -0.1842799787E+00      0.3760051029E+00
          0                 3           2             4    7     1       0.2314072281E-03       4    7    1         0.1289958732E-01      0.2632034782E-01
          0                 4           1             4    7     1      -0.9207911464E-05       4    7    1        -0.5275939411E-03      0.1076502391E-02

    ------------------------------------------------
       NWT REQUIRED            4 OUTER ITERATIONS 
       AND A TOTAL OF          7 INNER ITERATIONS.
    ------------------------------------------------

 NO OUTPUT CONTROL FOR STRESS PERIOD   24   TIME STEP   11
 
 SOLVING FOR HEAD 
                                                   Max.-Head-Change                         Max.-Flux-Residual
  Residual-Control   Outer-Iter.   Inner-Iter.     Column Row Layer    Maximum-Head-Change  Column Row Layer    Maximum-Flux-Residual          L2-NORM 
          0                 1           2             4    7     1       0.3441300241E-01       4    7    1         0.1815174161E+01      0.3709167380E+01
          0                 2           2             4    7     1      -0.3347472073E-02       4    7    1        -0.1815191399E+00      0.3709176244E+00
          0                 3           2             4    7     1       0.2279501890E-03       4    7    1         0.1270632897E-01      0.2596422230E-01
          0                 4           1             4    7     1      -0.9070352632E-05       4    7    1        -0.5196896668E-03      0.1061937646E-02

    ------------------------------------------------
       NWT REQUIRED            4 OUTER ITERATIONS 
       AND A TOTAL OF          7 INNER ITERATIONS.
    ------------------------------------------------

 NO OUTPUT CONTROL FOR STRESS PERIOD   24   TIME STEP   12
 
 SOLVING FOR HEAD 
                                                   Max.-Head-Change                         Max.-Flux-Residual
  Residual-Control   Outer-Iter.   Inner-Iter.     Column Row Layer    Maximum-Head-Change  Column Row Layer    Maximum-Flux-Residual          L2-NORM 
          0                 1           2             4    7     1       0.3390026506E-01       4    7    1         0.1788048424E+01      0.3659341002E+01
          0                 2           2             4    7     1      -0.3297596191E-02       4    7    1        -0.1788065193E+00      0.3659351833E+00
          0                 3           2             4    7     1       0.2245538334E-03       4    7    1         0.1251644591E-01      0.2561544582E-01
          0                 4           1             4    7     1      -0.8935208717E-05       4    7    1        -0.5119234397E-03      0.1047694440E-02

    ------------------------------------------------
       NWT REQUIRED            4 OUTER ITERATIONS 
       AND A TOTAL OF          7 INNER ITERATIONS.
    ------------------------------------------------

 NO OUTPUT CONTROL FOR STRESS PERIOD   24   TIME STEP   13
 
 SOLVING FOR HEAD 
                                                   Max.-Head-Change                         Max.-Flux-Residual
  Residual-Control   Outer-Iter.   Inner-Iter.     Column Row Layer    Maximum-Head-Change  Column Row Layer    Maximum-Flux-Residual          L2-NORM 
          0                 1           2             4    7     1       0.3339681440E-01       4    7    1         0.1761412248E+01      0.3610532925E+01
          0                 2           2             4    7     1      -0.3248623492E-02       4    7    1        -0.1761428558E+00      0.3610543349E+00
          0                 3           2             4    7     1       0.2212189805E-03       4    7    1         0.1232998980E-01      0.2527380035E-01
          0                 4           1             4    7     1      -0.8802511378E-05       4    7    1        -0.5042973621E-03      0.1033713343E-02

    ------------------------------------------------
       NWT REQUIRED            4 OUTER ITERATIONS 
       AND A TOTAL OF          7 INNER ITERATIONS.
    ------------------------------------------------

 NO OUTPUT CONTROL FOR STRESS PERIOD   24   TIME STEP   14
 
 SOLVING FOR HEAD 
                                                   Max.-Head-Change                         Max.-Flux-Residual
  Residual-Control   Outer-Iter.   Inner-Iter.     Column Row Layer    Maximum-Head-Change  Column Row Layer    Maximum-Flux-Residual          L2-NORM 
          0                 1           2             4    7     1       0.3290235761E-01       4    7    1         0.1735250233E+01      0.3562719986E+01
          0                 2           2             4    7     1      -0.3200525669E-02       4    7    1        -0.1735266097E+00      0.3562729952E+00
          0                 3           2             4    7     1       0.2179437035E-03       4    7    1         0.1214685292E-01      0.2493909760E-01
          0                 4           1             4    7     1      -0.8672185323E-05       4    7    1        -0.4968070562E-03      0.1020008988E-02

    ------------------------------------------------
       NWT REQUIRED            4 OUTER ITERATIONS 
       AND A TOTAL OF          7 INNER ITERATIONS.
    ------------------------------------------------

 NO OUTPUT CONTROL FOR STRESS PERIOD   24   TIME STEP   15
 
 SOLVING FOR HEAD 
                                                   Max.-Head-Change                         Max.-Flux-Residual
  Residual-Control   Outer-Iter.   Inner-Iter.     Column Row Layer    Maximum-Head-Change  Column Row Layer    Maximum-Flux-Residual          L2-NORM 
          0                 1           2             4    7     1       0.3241701414E-01       4    7    1         0.1709569220E+01      0.3515878385E+01
          0                 2           2             4    7     1      -0.3153314341E-02       4    7    1        -0.1709584650E+00      0.3515887961E+00
          0                 3           2             4    7     1       0.2147287932E-03       4    7    1         0.1196708311E-01      0.2461120162E-01
          0                 4           1             4    7     1      -0.8544260599E-05       4    7    1        -0.4894544477E-03      0.1006598188E-02

    ------------------------------------------------
       NWT REQUIRED            4 OUTER ITERATIONS 
       AND A TOTAL OF          7 INNER ITERATIONS.
    ------------------------------------------------

 NO OUTPUT CONTROL FOR STRESS PERIOD   24   TIME STEP   16
 
 SOLVING FOR HEAD 
                                                   Max.-Head-Change                         Max.-Flux-Residual
  Residual-Control   Outer-Iter.   Inner-Iter.     Column Row Layer    Maximum-Head-Change  Column Row Layer    Maximum-Flux-Residual          L2-NORM 
          0                 1           2             4    7     1       0.3194021424E-01       4    7    1         0.1684338679E+01      0.3469964698E+01
          0                 2           2             4    7     1      -0.3106934086E-02       4    7    1        -0.1684353686E+00      0.3469973801E+00
          0                 3           2             4    7     1       0.2115704762E-03       4    7    1         0.1179046670E-01      0.2428980425E-01
          0                 4           1             4    7     1      -0.8418588232E-05       4    7    1        -0.4822308251E-03      0.9934525764E-03

    ------------------------------------------------
       NWT REQUIRED            4 OUTER ITERATIONS 
       AND A TOTAL OF          7 INNER ITERATIONS.
    ------------------------------------------------

 NO OUTPUT CONTROL FOR STRESS PERIOD   24   TIME STEP   17
 
 SOLVING FOR HEAD 
                                                   Max.-Head-Change                         Max.-Flux-Residual
  Residual-Control   Outer-Iter.   Inner-Iter.     Column Row Layer    Maximum-Head-Change  Column Row Layer    Maximum-Flux-Residual          L2-NORM 
          0                 1           2             4    7     1       0.3147221763E-01       4    7    1         0.1659573141E+01      0.3424976635E+01
          0                 2           2             4    7     1      -0.3061410168E-02       4    7    1        -0.1659587735E+00      0.3424985350E+00
          0                 3           2             4    7     1       0.2084704719E-03       4    7    1         0.1161710535E-01      0.2397487683E-01
          0                 4           1             4    7     1      -0.8295236031E-05       4    7    1        -0.4751403417E-03      0.9805720080E-03

    ------------------------------------------------
       NWT REQUIRED            4 OUTER ITERATIONS 
       AND A TOTAL OF          7 INNER ITERATIONS.
    ------------------------------------------------

 NO OUTPUT CONTROL FOR STRESS PERIOD   24   TIME STEP   18
 
 SOLVING FOR HEAD 
                                                   Max.-Head-Change                         Max.-Flux-Residual
  Residual-Control   Outer-Iter.   Inner-Iter.     Column Row Layer    Maximum-Head-Change  Column Row Layer    Maximum-Flux-Residual          L2-NORM 
          0                 1           2             4    7     1       0.3101272372E-01       4    7    1         0.1635256690E+01      0.3380872536E+01
          0                 2           2             4    7     1      -0.3016713348E-02       4    7    1        -0.1635270883E+00      0.3380881250E+00
          0                 3           2             4    7     1       0.2054267901E-03       4    7    1         0.1144688772E-01      0.2366615947E-01
          0                 4           1             4    7     1      -0.8174124903E-05       4    7    1        -0.4681784126E-03      0.9679471544E-03

    ------------------------------------------------
       NWT REQUIRED            4 OUTER ITERATIONS 
       AND A TOTAL OF          7 INNER ITERATIONS.
    ------------------------------------------------

 NO OUTPUT CONTROL FOR STRESS PERIOD   24   TIME STEP   19
 
 SOLVING FOR HEAD 
                                                   Max.-Head-Change                         Max.-Flux-Residual
  Residual-Control   Outer-Iter.   Inner-Iter.     Column Row Layer    Maximum-Head-Change  Column Row Layer    Maximum-Flux-Residual          L2-NORM 
          0                 1           2             4    7     1       0.3056157341E-01       4    7    1         0.1611381087E+01      0.3337626778E+01
          0                 2           2             4    7     1      -0.2972828148E-02       4    7    1        -0.1611394890E+00      0.3337634661E+00
          0                 3           2             4    7     1       0.2024383764E-03       4    7    1         0.1127975605E-01      0.2336343483E-01
          0                 4           1             4    7     1      -0.8055213519E-05       4    7    1        -0.4613427318E-03      0.9555774532E-03

    ------------------------------------------------
       NWT REQUIRED            4 OUTER ITERATIONS 
       AND A TOTAL OF          7 INNER ITERATIONS.
    ------------------------------------------------

 NO OUTPUT CONTROL FOR STRESS PERIOD   24   TIME STEP   20
 
 SOLVING FOR HEAD 
                                                   Max.-Head-Change                         Max.-Flux-Residual
  Residual-Control   Outer-Iter.   Inner-Iter.     Column Row Layer    Maximum-Head-Change  Column Row Layer    Maximum-Flux-Residual          L2-NORM 
          0                 1           2             4    7     1       0.3011861046E-01       4    7    1         0.1587938083E+01      0.3295232351E+01
          0                 2           2             4    7     1      -0.2929739371E-02       4    7    1        -0.1587951507E+00      0.3295239878E+00
          0                 3           2             4    7     1       0.1995041959E-03       4    7    1         0.1111565264E-01      0.2306666185E-01
          0                 4           1             4    7     1      -0.7938459742E-05       4    7    1        -0.4546309005E-03      0.9434267212E-03

    ------------------------------------------------
       NWT REQUIRED            4 OUTER ITERATIONS 
       AND A TOTAL OF          7 INNER ITERATIONS.
    ------------------------------------------------

 NO OUTPUT CONTROL FOR STRESS PERIOD   24   TIME STEP   21
 
 SOLVING FOR HEAD 
                                                   Max.-Head-Change                         Max.-Flux-Residual
  Residual-Control   Outer-Iter.   Inner-Iter.     Column Row Layer    Maximum-Head-Change  Column Row Layer    Maximum-Flux-Residual          L2-NORM 
          0                 1           2             4    7     1       0.2968381612E-01       4    7    1         0.1564926924E+01      0.3253654048E+01
          0                 2           2             4    7     1      -0.2887445192E-02       4    7    1        -0.1564939979E+00      0.3253660780E+00
          0                 3           2             4    7     1       0.1966241243E-03       4    7    1         0.1095457224E-01      0.2277557681E-01
          0                 4           1             4    7     1      -0.7823858850E-05       4    7    1        -0.4480426851E-03      0.9315230196E-03

    ------------------------------------------------
       NWT REQUIRED            4 OUTER ITERATIONS 
       AND A TOTAL OF          7 INNER ITERATIONS.
    ------------------------------------------------

 NO OUTPUT CONTROL FOR STRESS PERIOD   24   TIME STEP   22
 
 SOLVING FOR HEAD 
                                                   Max.-Head-Change                         Max.-Flux-Residual
  Residual-Control   Outer-Iter.   Inner-Iter.     Column Row Layer    Maximum-Head-Change  Column Row Layer    Maximum-Flux-Residual          L2-NORM 
          0                 1           2             4    7     1       0.2925689085E-01       4    7    1         0.1542331944E+01      0.3212871736E+01
          0                 2           2             4    7     1      -0.2845916475E-02       4    7    1        -0.1542344641E+00      0.3212878425E+00
          0                 3           2             4    7     1       0.1937961774E-03       4    7    1         0.1079640512E-01      0.2249012927E-01
          0                 4           1             4    7     1      -0.7711332097E-05       4    7    1        -0.4415736407E-03      0.9198478129E-03

    ------------------------------------------------
       NWT REQUIRED            4 OUTER ITERATIONS 
       AND A TOTAL OF          7 INNER ITERATIONS.
    ------------------------------------------------

 NO OUTPUT CONTROL FOR STRESS PERIOD   24   TIME STEP   23
 
 SOLVING FOR HEAD 
                                                   Max.-Head-Change                         Max.-Flux-Residual
  Residual-Control   Outer-Iter.   Inner-Iter.     Column Row Layer    Maximum-Head-Change  Column Row Layer    Maximum-Flux-Residual          L2-NORM 
          0                 1           2             4    7     1       0.2883768285E-01       4    7    1         0.1520144961E+01      0.3172870126E+01
          0                 2           2             4    7     1      -0.2805138452E-02       4    7    1        -0.1520157308E+00      0.3172876505E+00
          0                 3           2             4    7     1       0.1910193505E-03       4    7    1         0.1064109407E-01      0.2221011526E-01
          0                 4           1             4    7     1      -0.7600839419E-05       4    7    1        -0.4352214028E-03      0.9083916225E-03

    ------------------------------------------------
       NWT REQUIRED            4 OUTER ITERATIONS 
       AND A TOTAL OF          7 INNER ITERATIONS.
    ------------------------------------------------

 NO OUTPUT CONTROL FOR STRESS PERIOD   24   TIME STEP   24
 
 SOLVING FOR HEAD 
                                                   Max.-Head-Change                         Max.-Flux-Residual
  Residual-Control   Outer-Iter.   Inner-Iter.     Column Row Layer    Maximum-Head-Change  Column Row Layer    Maximum-Flux-Residual          L2-NORM 
          0                 1           2             4    7     1       0.2842630712E-01       4    7    1         0.1498372799E+01      0.3133626776E+01
          0                 2           2             4    7     1      -0.2765122310E-02       4    7    1        -0.1498384809E+00      0.3133632773E+00
          0                 3           2             4    7     1       0.1882944050E-03       4    7    1         0.1048868685E-01      0.2193540490E-01
          0                 4           1             4    7     1      -0.7492411439E-05       4    7    1        -0.4289879412E-03      0.8972248800E-03

    ------------------------------------------------
       NWT REQUIRED            4 OUTER ITERATIONS 
       AND A TOTAL OF          7 INNER ITERATIONS.
    ------------------------------------------------

 NO OUTPUT CONTROL FOR STRESS PERIOD   24   TIME STEP   25
 
 SOLVING FOR HEAD 
                                                   Max.-Head-Change                         Max.-Flux-Residual
  Residual-Control   Outer-Iter.   Inner-Iter.     Column Row Layer    Maximum-Head-Change  Column Row Layer    Maximum-Flux-Residual          L2-NORM 
          0                 1           2             4    7     1       0.2802233268E-01       4    7    1         0.1476992029E+01      0.3095119134E+01
          0                 2           2             4    7     1      -0.2725826126E-02       4    7    1        -0.1477003709E+00      0.3095124722E+00
          0                 3           2             4    7     1       0.1856184848E-03       4    7    1         0.1033901937E-01      0.2166584995E-01
          0                 4           1             4    7     1      -0.7385934066E-05       4    7    1        -0.4228665357E-03      0.8861355172E-03

    ------------------------------------------------
       NWT REQUIRED            4 OUTER ITERATIONS 
       AND A TOTAL OF          7 INNER ITERATIONS.
    ------------------------------------------------

 NO OUTPUT CONTROL FOR STRESS PERIOD   24   TIME STEP   26
 
 SOLVING FOR HEAD 
                                                   Max.-Head-Change                         Max.-Flux-Residual
  Residual-Control   Outer-Iter.   Inner-Iter.     Column Row Layer    Maximum-Head-Change  Column Row Layer    Maximum-Flux-Residual          L2-NORM 
          0                 1           2             4    7     1       0.2762588599E-01       4    7    1         0.1456009701E+01      0.3057342068E+01
          0                 2           2             4    7     1      -0.2687262200E-02       4    7    1        -0.1456021061E+00      0.3057347297E+00
          0                 3           2             4    7     1       0.1829924290E-03       4    7    1         0.1019214107E-01      0.2140140526E-01
          0                 4           1             4    7     1      -0.7281440687E-05       4    7    1        -0.4168592027E-03      0.8753211254E-03

    ------------------------------------------------
       NWT REQUIRED            4 OUTER ITERATIONS 
       AND A TOTAL OF          7 INNER ITERATIONS.
    ------------------------------------------------

 NO OUTPUT CONTROL FOR STRESS PERIOD   24   TIME STEP   27
 
 SOLVING FOR HEAD 
                                                   Max.-Head-Change                         Max.-Flux-Residual
  Residual-Control   Outer-Iter.   Inner-Iter.     Column Row Layer    Maximum-Head-Change  Column Row Layer    Maximum-Flux-Residual          L2-NORM 
          0                 1           2             4    7     1       0.2723653455E-01       4    7    1         0.1435402972E+01      0.3020256992E+01
          0                 2           2             4    7     1      -0.2649388462E-02       4    7    1        -0.1435414021E+00      0.3020261841E+00
          0                 3           2             4    7     1       0.1804133725E-03       4    7    1         0.1004789204E-01      0.2114180780E-01
          0                 4           1             4    7     1      -0.7178817671E-05       4    7    1        -0.4109593997E-03      0.8647015356E-03

    ------------------------------------------------
       NWT REQUIRED            4 OUTER ITERATIONS 
       AND A TOTAL OF          7 INNER ITERATIONS.
    ------------------------------------------------

 NO OUTPUT CONTROL FOR STRESS PERIOD   24   TIME STEP   28
 
 SOLVING FOR HEAD 
                                                   Max.-Head-Change                         Max.-Flux-Residual
  Residual-Control   Outer-Iter.   Inner-Iter.     Column Row Layer    Maximum-Head-Change  Column Row Layer    Maximum-Flux-Residual          L2-NORM 
          0                 1           2             4    7     1       0.2685440309E-01       4    7    1         0.1415178819E+01      0.2983856783E+01
          0                 2           2             4    7     1      -0.2612217046E-02       4    7    1        -0.1415189567E+00      0.2983858652E+00
          0                 3           2             4    7     1       0.1778821412E-03       4    7    1         0.9906321082E-02      0.2088698354E-01
          0                 4           1             4    7     1      -0.7078097484E-05       4    7    1        -0.4051691426E-03      0.8542761819E-03

    ------------------------------------------------
       NWT REQUIRED            4 OUTER ITERATIONS 
       AND A TOTAL OF          7 INNER ITERATIONS.
    ------------------------------------------------

 NO OUTPUT CONTROL FOR STRESS PERIOD   24   TIME STEP   29
 
 SOLVING FOR HEAD 
                                                   Max.-Head-Change                         Max.-Flux-Residual
  Residual-Control   Outer-Iter.   Inner-Iter.     Column Row Layer    Maximum-Head-Change  Column Row Layer    Maximum-Flux-Residual          L2-NORM 
          0                 1           2             4    7     1       0.2647920550E-01       4    7    1         0.1395321659E+01      0.2948128431E+01
          0                 2           2             4    7     1      -0.2575720118E-02       4    7    1        -0.1395332114E+00      0.2948132683E+00
          0                 3           2             4    7     1       0.1753968399E-03       4    7    1         0.9767319122E-02      0.2063690434E-01
          0                 4           1             4    7     1      -0.6979204947E-05       4    7    1        -0.3994839481E-03      0.8440511166E-03

    ------------------------------------------------
       NWT REQUIRED            4 OUTER ITERATIONS 
       AND A TOTAL OF          7 INNER ITERATIONS.
    ------------------------------------------------

 NO OUTPUT CONTROL FOR STRESS PERIOD   24   TIME STEP   30



 STREAM LISTING     PERIOD     24   STEP       30

 LAYER ROW COL. STREAM  RCH.  FLOW INTO     FLOW TO   FLOW OUT OF   OVRLND.     DIRECT     STREAM       STREAM     STREAM     STREAM   STREAMBED  STREAMBED
                SEG.NO.  NO.  STRM. RCH.    AQUIFER    STRM. RCH.    RUNOFF     PRECIP       ET          HEAD       DEPTH      WIDTH   CONDCTNC.   GRADIENT

   1    1    1     1     1    1.5750E+01  1.9239E-01   1.5558E+01  0.000E+00  0.000E+00  0.000E+00  1.09407E+03  1.025E+00  1.062E+01  4.780E-02  1.342E+00
   1    2    2     1     2    1.5558E+01  2.9660E-01   1.5261E+01  0.000E+00  0.000E+00  0.000E+00  1.08908E+03  1.020E+00  1.054E+01  7.378E-02  1.340E+00
   1    3    3     1     3    1.5261E+01  2.5164E-01   1.5010E+01  0.000E+00  0.000E+00  0.000E+00  1.08343E+03  1.015E+00  1.045E+01  6.268E-02  1.338E+00
   1    3    4     1     4    1.5010E+01  2.3064E-01   1.4779E+01  0.000E+00  0.000E+00  0.000E+00  1.07842E+03  1.010E+00  1.036E+01  5.752E-02  1.337E+00
   1    4    5     2     1    1.2779E+01  2.9653E-01   1.2482E+01  0.000E+00  0.000E+00  0.000E+00  1.07274E+03  8.017E-01  1.200E+01  7.800E-02  1.267E+00
   1    5    6     2     2    1.2482E+01  2.2750E-01   1.2255E+01  0.000E+00  0.000E+00  0.000E+00  1.06730E+03  7.917E-01  1.200E+01  6.000E-02  1.264E+00
   1    6    6     2     3    1.2255E+01  2.2697E-01   1.2028E+01  0.000E+00  0.000E+00  0.000E+00  1.06258E+03  7.829E-01  1.200E+01  6.000E-02  1.261E+00
   1    7    6     2     4    1.2028E+01  2.2645E-01   1.1802E+01  0.000E+00  0.000E+00  0.000E+00  1.05785E+03  7.741E-01  1.200E+01  6.000E-02  1.258E+00
   1    8    6     2     5    1.1802E+01  2.2591E-01   1.1576E+01  0.000E+00  0.000E+00  0.000E+00  1.05312E+03  7.652E-01  1.200E+01  6.000E-02  1.255E+00
   1    3    5     3     1    2.0000E+00  2.8252E-01   1.7175E+00  0.000E+00  0.000E+00  0.000E+00  1.07555E+03  1.909E+00  9.636E+00  7.227E-02  1.955E+00
   1    3    6     3     2    1.7175E+00  2.4905E-01   1.4684E+00  0.000E+00  0.000E+00  0.000E+00  1.07264E+03  1.727E+00  8.909E+00  6.682E-02  1.864E+00
   1    3    7     3     3    1.4684E+00  1.9718E-01   1.2712E+00  0.000E+00  0.000E+00  0.000E+00  1.06987E+03  1.555E+00  8.218E+00  5.547E-02  1.777E+00
   1    4    8     3     4    1.2712E+00  2.2567E-01   1.0456E+00  0.000E+00  0.000E+00  0.000E+00  1.06682E+03  1.364E+00  7.455E+00  6.709E-02  1.682E+00
   1    5    8     3     5    1.0456E+00  1.5790E-01   8.8768E-01  0.000E+00  0.000E+00  0.000E+00  1.06362E+03  1.164E+00  6.655E+00  4.991E-02  1.582E+00
   1    6    8     3     6    8.8768E-01  5.5980E-02   8.3170E-01  0.000E+00  0.000E+00  0.000E+00  1.06158E+03  1.036E+00  6.145E+00  1.844E-02  1.518E+00
   1    5   10     4     1    1.0000E+01  9.0919E-02   9.9091E+00  0.000E+00  0.000E+00  0.000E+00  1.07836E+03  6.368E-01  1.000E+01  2.500E-02  1.212E+00
   1    5    9     4     2    9.9091E+00  1.8158E-01   9.7275E+00  0.000E+00  0.000E+00  0.000E+00  1.07154E+03  6.315E-01  1.000E+01  5.000E-02  1.211E+00
   1    6    8     4     3    9.7275E+00  1.2689E-01   9.6006E+00  0.000E+00  0.000E+00  0.000E+00  1.06381E+03  6.256E-01  1.000E+01  3.500E-02  1.209E+00
   1    6    8     5     1    1.0432E+01  2.2686E-01   1.0205E+01  0.000E+00  0.000E+00  0.000E+00  1.05868E+03  6.790E-01  1.542E+01  6.166E-02  1.226E+00
   1    7    7     5     2    1.0205E+01  2.7894E-01   9.9265E+00  0.000E+00  0.000E+00  0.000E+00  1.05417E+03  6.732E-01  1.519E+01  7.594E-02  1.224E+00
   1    8    7     5     3    9.9265E+00  1.9221E-01   9.7343E+00  0.000E+00  0.000E+00  0.000E+00  1.04992E+03  6.676E-01  1.497E+01  5.241E-02  1.223E+00
   1    8    6     5     4    9.7343E+00  1.3577E-01   9.5985E+00  0.000E+00  0.000E+00  0.000E+00  1.04691E+03  6.637E-01  1.482E+01  3.706E-02  1.221E+00
   1    9    6     6     1    2.1174E+01  2.4608E-01   2.0928E+01  0.000E+00  0.000E+00  0.000E+00  1.04383E+03  1.101E+00  1.200E+01  6.000E-02  1.367E+00
   1   10    7     6     2    2.0928E+01  2.4562E-01   2.0682E+01  0.000E+00  0.000E+00  0.000E+00  1.03928E+03  1.094E+00  1.200E+01  6.000E-02  1.365E+00
   1   11    7     6     3    2.0682E+01  2.4515E-01   2.0437E+01  0.000E+00  0.000E+00  0.000E+00  1.03472E+03  1.086E+00  1.200E+01  6.000E-02  1.362E+00
   1   12    7     6     4    2.0437E+01  2.4469E-01   2.0193E+01  0.000E+00  0.000E+00  0.000E+00  1.03017E+03  1.078E+00  1.200E+01  6.000E-02  1.359E+00
   1   13    7     6     5    2.0193E+01 -2.4930E-02   2.0218E+01  0.000E+00  0.000E+00  0.000E+00  1.02698E+03  1.075E+00  1.200E+01  2.400E-01 -3.462E-02
   1   14    9     7     1    1.5000E+02  1.3368E+00   1.4866E+02  0.000E+00  0.000E+00  0.000E+00  1.03987E+03  2.288E+00  5.529E+01  5.593E-01  7.967E-01
   1   13    8     7     2    1.4866E+02  1.8301E+00   1.4683E+02  0.000E+00  0.000E+00  0.000E+00  1.03478E+03  2.279E+00  5.526E+01  6.148E-01  9.923E-01
   1   13    7     7     3    1.4683E+02  1.4533E+00   1.4538E+02  0.000E+00  0.000E+00  0.000E+00  1.02969E+03  2.271E+00  5.522E+01  5.585E-01  8.674E-01
   1   13    6     8     1    1.6560E+02  8.7923E-01   1.6472E+02  0.000E+00  0.000E+00  0.000E+00  1.02480E+03  2.920E+00  4.235E+01  4.315E-01  6.792E-01
   1   13    5     8     2    1.6472E+02  1.4015E-01   1.6458E+02  0.000E+00  0.000E+00  0.000E+00  1.01854E+03  2.917E+00  4.230E+01  4.310E-01  1.084E-01
   1   13    4     8     3    1.6458E+02 -2.5484E+00   1.6713E+02  0.000E+00  0.000E+00  0.000E+00  1.01230E+03  2.925E+00  4.241E+01  4.322E+00 -1.965E-01
   1   13    3     8     4    1.6713E+02 -3.7027E+00   1.7083E+02  0.000E+00  0.000E+00  0.000E+00  1.00607E+03  2.946E+00  4.271E+01  4.352E+00 -2.836E-01
   1   13    2     8     5    1.7083E+02 -2.5867E+00   1.7342E+02  0.000E+00  0.000E+00  0.000E+00  9.99841E+02  2.966E+00  4.301E+01  4.383E+00 -1.967E-01
   1   13    1     8     6    1.7342E+02 -1.9778E+00   1.7539E+02  0.000E+00  0.000E+00  0.000E+00  9.94856E+02  2.981E+00  4.322E+01  2.643E+00 -2.495E-01
   1    8    6     9     1    0.0000E+00  0.0000E+00   0.0000E+00  0.000E+00  0.000E+00  0.000E+00  1.07875E+03  0.000E+00  4.000E+00  0.000E+00  1.000E+00
   1    8    5     9     2    0.0000E+00  0.0000E+00   0.0000E+00  0.000E+00  0.000E+00  0.000E+00  1.07825E+03  0.000E+00  4.000E+00  0.000E+00  1.000E+00





UNSATURATED ZONE PACKAGE VOLUMETRIC BUDGET FOR  TIME STEP    30 STRESS PERIOD   24
  ------------------------------------------------------------------------------



     CUMULATIVE VOLUMES      L**3       RATES FOR THIS TIME STEP      L**3/T
     ------------------                 ------------------------

           IN:                                      IN:
           ---                                      ---
        INFILTRATION =   990499937.5157          INFILTRATION =           0.8475

          OUT:                                     OUT:
          ----                                     ----
              UZF ET =   858224819.8108                UZF ET =           0.7500
        UZF RECHARGE =       73224.0000          UZF RECHARGE =       0.0000E+00

            IN - OUT =   132201893.7049              IN - OUT =       9.7500E-02

          STORAGE:                                 STORAGE:
          --------                                 --------
      STORAGE CHANGE =   132203169.8733        STORAGE CHANGE =       9.7500E-02

 PERCENT DISCREPANCY IS DIFFERENCE BETWEEN IN-OUT MINUS CHANGE IN STORAGE
 DIVIDED BY THE AVERAGE OF IN AND OUT TIMES 100

 PERCENT DISCREPANCY =          -0.00     PERCENT DISCREPANCY =           0.00






1
  VOLUMETRIC BUDGET FOR AGRICULTURAL FIELDS AT  END OF TIME STEP   30, STRESS PERIOD  24
  ------------------------------------------------------------------------------

     CUMULATIVE VOLUMES      L**3       RATES FOR THIS TIME STEP      L**3/T
     ------------------                 ------------------------

           IN:                                      IN:
           ---                                      ---
               AG WELLS  =   328055200.0000                 AG WELLS  =           0.0000
      DIVERSION SEGMENTS =   611151808.0000        DIVERSION SEGMENTS =           0.0000
       IRRIGATION PONDS  =           0.0000         IRRIGATION PONDS  =           0.0000
           GW IRRIGATION =           0.0000             GW IRRIGATION =           0.0000
           SW IRRIGATION =           0.0000             SW IRRIGATION =           0.0000
        SYSTEM LOSSES GW =           0.0000          SYSTEM LOSSES GW =           0.0000
        SYSTEM LOSSES SW =           0.0000          SYSTEM LOSSES SW =           0.0000

                TOTAL IN =   939207040.0000                  TOTAL IN =           0.0000

          OUT:                                     OUT:
          ----                                     ----
               AG WELLS  =           0.0000                 AG WELLS  =           0.0000
      DIVERSION SEGMENTS =           0.0000        DIVERSION SEGMENTS =           0.0000
       IRRIGATION PONDS  =           0.0000         IRRIGATION PONDS  =           0.0000
           GW IRRIGATION =   328055200.0000             GW IRRIGATION =           0.0000
           SW IRRIGATION =   611163648.0000             SW IRRIGATION =           0.0000
        SYSTEM LOSSES GW =           0.0000          SYSTEM LOSSES GW =           0.0000
        SYSTEM LOSSES SW =           0.0000          SYSTEM LOSSES SW =           0.0000

               TOTAL OUT =   939218816.0000                 TOTAL OUT =           0.0000

                IN - OUT =      -11776.0000                  IN - OUT =           0.0000

     PERCENT DISCREPANCY =          -0.00         PERCENT DISCREPANCY =           0.00



1
  VOLUMETRIC BUDGET FOR ENTIRE MODEL AT END OF TIME STEP   30, STRESS PERIOD  24
  ------------------------------------------------------------------------------

     CUMULATIVE VOLUMES      L**3       RATES FOR THIS TIME STEP      L**3/T
     ------------------                 ------------------------

           IN:                                      IN:
           ---                                      ---
             STORAGE     =   521944288.0000               STORAGE     =           7.8924
       CONSTANT HEAD     =           0.0000         CONSTANT HEAD     =           0.0000
     HEAD DEP BOUNDS     =    17310354.0000       HEAD DEP BOUNDS     =           0.2858
      STREAM LEAKAGE     =   719608512.0000        STREAM LEAKAGE     =          11.1973
        UZF RECHARGE     =       73223.9531          UZF RECHARGE     =           0.0000
               GW ET     =           0.0000                 GW ET     =           0.0000
     SURFACE LEAKAGE     =           0.0000       SURFACE LEAKAGE     =           0.0000
           AG WELLS      =           0.0000             AG WELLS      =           0.0000

                TOTAL IN =  1258936320.0000                  TOTAL IN =          19.3755

          OUT:                                     OUT:
          ----                                     ----
             STORAGE     =   252505072.0000               STORAGE     =           8.2460
       CONSTANT HEAD     =           0.0000         CONSTANT HEAD     =           0.0000
     HEAD DEP BOUNDS     =    17606822.0000       HEAD DEP BOUNDS     =           0.2890
      STREAM LEAKAGE     =   658446080.0000        STREAM LEAKAGE     =          10.8406
        UZF RECHARGE     =           0.0000          UZF RECHARGE     =           0.0000
               GW ET     =     2326724.7500                 GW ET     =           0.0000
     SURFACE LEAKAGE     =           0.0000       SURFACE LEAKAGE     =           0.0000
           AG WELLS      =   328055200.0000             AG WELLS      =           0.0000

               TOTAL OUT =  1258939904.0000                 TOTAL OUT =          19.3755

                IN - OUT =       -3584.0000                  IN - OUT =       3.8147E-06

     PERCENT DISCREPANCY =          -0.00         PERCENT DISCREPANCY =           0.00






         TIME SUMMARY AT END OF TIME STEP   30 IN STRESS PERIOD   24
                    SECONDS     MINUTES      HOURS       DAYS        YEARS
                    -----------------------------------------------------------
   TIME STEP LENGTH  87667.      1461.1      24.352      1.0147     2.77799E-03
 STRESS PERIOD TIME 2.63000E+06  43833.      730.56      30.440     8.33397E-02
         TOTAL TIME 6.05767E+07 1.00961E+06  16827.      701.12      1.9196    
1
1
                            STRESS PERIOD NO.   25, LENGTH =   2630000.    
                            -----------------------------------------------

                              NUMBER OF TIME STEPS =    30

                               MULTIPLIER FOR DELT =     1.000

                            INITIAL TIME STEP SIZE =   87666.66    

 REUSING NON-PARAMETER GHB CELLS FROM LAST STRESS PERIOD

      2 GHB CELLS

 REUSING STREAM SEGMENT DATA FROM LAST STRESS PERIOD



            AREAL INFILTRATION RATE
 READING ON UNIT   19 WITH FORMAT: (FREE)              

            1           2           3           4           5           6           7           8           9          10
 ........................................................................................................................
   1   1.0000E-10  2.0000E-10   0.000       0.000       0.000       0.000       0.000       0.000       0.000       0.000    
   2   2.0000E-10  1.0000E-10  2.0000E-10   0.000       0.000      8.0000E-10  8.0000E-10  5.0000E-10   0.000       0.000    
   3    0.000      5.0000E-10  1.0000E-10  1.0000E-10  8.0000E-10  8.0000E-10  5.0000E-10  5.0000E-10   0.000       0.000    
   4   8.0000E-10  5.0000E-10  1.0000E-10  1.0000E-10  1.0000E-10  1.0000E-10  1.0000E-10  1.0000E-10  2.0000E-10   0.000    
   5   8.0000E-10  5.0000E-10  1.0000E-10  1.0000E-10  1.0000E-10  1.0000E-10  1.0000E-10  1.0000E-10  1.0000E-10  1.0000E-10
   6   8.0000E-10  5.0000E-10  5.0000E-10  2.0000E-10  2.0000E-10  1.0000E-10  1.0000E-10  1.0000E-10  1.0000E-10  5.0000E-10
   7   8.0000E-10  5.0000E-10  5.0000E-10  2.0000E-10  2.0000E-10  1.0000E-10  1.0000E-10  2.0000E-10  2.0000E-10   0.000    
   8    0.000      5.0000E-10  5.0000E-10  2.0000E-10  2.0000E-10  1.0000E-10  1.0000E-10  2.0000E-10  5.0000E-10   0.000    
   9    0.000      5.0000E-10  5.0000E-10  2.0000E-10  2.0000E-10  1.0000E-10  1.0000E-10  2.0000E-10  5.0000E-10   0.000    
  10    0.000      5.0000E-10  5.0000E-10  2.0000E-10  2.0000E-10  1.0000E-10  1.0000E-10  2.0000E-10  5.0000E-10  8.0000E-10
  11    0.000      1.0000E-10  1.0000E-10  1.0000E-10  1.0000E-10  1.0000E-10  1.0000E-10  2.0000E-10  5.0000E-10   0.000    
  12   1.0000E-10  1.0000E-10  1.0000E-10  1.0000E-10  1.0000E-10  1.0000E-10  1.0000E-10  1.0000E-10  2.0000E-10   0.000    
  13   1.0000E-10  1.0000E-10  2.0000E-10  2.0000E-10  2.0000E-10  2.0000E-10  2.0000E-10  1.0000E-10  1.0000E-10   0.000    
  14    0.000      2.0000E-10  5.0000E-10  5.0000E-10  5.0000E-10  5.0000E-10  5.0000E-10  2.0000E-10  1.0000E-10   0.000    
  15    0.000       0.000      8.0000E-10  8.0000E-10  8.0000E-10  8.0000E-10   0.000       0.000       0.000       0.000    

                  ET RATE =  5.000000E-10

 USING ET EXTINCTION DEPTH FROM PREVIOUS STRESS PERIOD. CURRENT PERIOD IS:      25

 USING EXTINCTION WATER CONTENT FROM PREVIOUS STRESS PERIOD. CURRENT PERIOD IS:      25

 USING AIR ENTRY PRESSURE FROM PREVIOUS STRESS PERIOD. CURRENT PERIOD IS:      25

 USING ROOT PRESSURE HEAD FROM PREVIOUS STRESS PERIOD. CURRENT PERIOD IS:      25

 USING ROOT ACTIVITY FROM PREVIOUS STRESS PERIOD. CURRENT PERIOD IS:      25

 PROCESSING AG STRESS PERIOD DATA

 READING AG STRESS PERIOD DATA

 READING IRRIGATION SEGMENT

 READING IRRIGATION WELL

 READING SUPPLEMENTAL WELL

 NO IRRPOND OR REUSING IRRPOND DATA FROM LAST STRESS PERIOD

 END PROCESSING AG STRESS PERIOD DATA OPTIONS
 
 SOLVING FOR HEAD 
                                                   Max.-Head-Change                         Max.-Flux-Residual
  Residual-Control   Outer-Iter.   Inner-Iter.     Column Row Layer    Maximum-Head-Change  Column Row Layer    Maximum-Flux-Residual          L2-NORM 
          0                 1           2             4    7     1       0.2611079098E-01       4    7    1         0.1375824008E+01      0.2914178991E+01
          0                 2           2             4    7     1      -0.2539883011E-02       4    7    1        -0.1375834177E+00      0.2914171802E+00
          0                 3           2             4    7     1       0.1729564702E-03       4    7    1         0.9630833792E-02      0.2039907460E-01
          0                 4           1             4    7     1      -0.6882100573E-05       4    7    1        -0.3939016979E-03      0.8343109858E-03

    ------------------------------------------------
       NWT REQUIRED            4 OUTER ITERATIONS 
       AND A TOTAL OF          7 INNER ITERATIONS.
    ------------------------------------------------

 NO OUTPUT CONTROL FOR STRESS PERIOD   25   TIME STEP    1
 
 SOLVING FOR HEAD 
                                                   Max.-Head-Change                         Max.-Flux-Residual
  Residual-Control   Outer-Iter.   Inner-Iter.     Column Row Layer    Maximum-Head-Change  Column Row Layer    Maximum-Flux-Residual          L2-NORM 
          0                 1           2             4    7     1       0.2574914847E-01       4    7    1         0.1356685397E+01      0.2880170434E+01
          0                 2           2             4    7     1      -0.2504704647E-02       4    7    1        -0.1356695290E+00      0.2880158114E+00
          0                 3           2             4    7     1       0.1705609578E-03       4    7    1         0.9496861764E-02      0.2016093171E-01
          0                 4           1             4    7     1      -0.6786780906E-05       4    7    1        -0.3884222351E-03      0.8246085574E-03

    ------------------------------------------------
       NWT REQUIRED            4 OUTER ITERATIONS 
       AND A TOTAL OF          7 INNER ITERATIONS.
    ------------------------------------------------

 NO OUTPUT CONTROL FOR STRESS PERIOD   25   TIME STEP    2
 
 SOLVING FOR HEAD 
                                                   Max.-Head-Change                         Max.-Flux-Residual
  Residual-Control   Outer-Iter.   Inner-Iter.     Column Row Layer    Maximum-Head-Change  Column Row Layer    Maximum-Flux-Residual          L2-NORM 
          0                 1           2             4    7     1       0.2539413194E-01       4    7    1         0.1337897904E+01      0.2846320568E+01
          0                 2           2             4    7     1      -0.2470170823E-02       4    7    1        -0.1337907529E+00      0.2846309195E+00
          0                 3           2             4    7     1       0.1682093363E-03       4    7    1         0.9365347645E-02      0.1992399367E-01
          0                 4           1             4    7     1      -0.6693207380E-05       4    7    1        -0.3830432911E-03      0.8148680399E-03

    ------------------------------------------------
       NWT REQUIRED            4 OUTER ITERATIONS 
       AND A TOTAL OF          7 INNER ITERATIONS.
    ------------------------------------------------

 NO OUTPUT CONTROL FOR STRESS PERIOD   25   TIME STEP    3
 
 SOLVING FOR HEAD 
                                                   Max.-Head-Change                         Max.-Flux-Residual
  Residual-Control   Outer-Iter.   Inner-Iter.     Column Row Layer    Maximum-Head-Change  Column Row Layer    Maximum-Flux-Residual          L2-NORM 
          0                 1           2             4    7     1       0.2504546174E-01       4    7    1         0.1319446603E+01      0.2813075178E+01
          0                 2           2             4    7     1      -0.2436254335E-02       4    7    1        -0.1319455967E+00      0.2813064853E+00
          0                 3           2             4    7     1       0.1658997532E-03       4    7    1         0.9236186911E-02      0.1969130571E-01
          0                 4           1             4    7     1      -0.6601307004E-05       4    7    1        -0.3777606175E-03      0.8053678700E-03

    ------------------------------------------------
       NWT REQUIRED            4 OUTER ITERATIONS 
       AND A TOTAL OF          7 INNER ITERATIONS.
    ------------------------------------------------

 NO OUTPUT CONTROL FOR STRESS PERIOD   25   TIME STEP    4
 
 SOLVING FOR HEAD 
                                                   Max.-Head-Change                         Max.-Flux-Residual
  Residual-Control   Outer-Iter.   Inner-Iter.     Column Row Layer    Maximum-Head-Change  Column Row Layer    Maximum-Flux-Residual          L2-NORM 
          0                 1           2             4    7     1       0.2470314243E-01       4    7    1         0.1301331700E+01      0.2780427884E+01
          0                 2           2             4    7     1      -0.2402955626E-02       4    7    1        -0.1301340812E+00      0.2780418501E+00
          0                 3           2             4    7     1       0.1636322379E-03       4    7    1         0.9109380997E-02      0.1946278193E-01
          0                 4           1             4    7     1      -0.6511080582E-05       4    7    1        -0.3725742376E-03      0.7960216814E-03

    ------------------------------------------------
       NWT REQUIRED            4 OUTER ITERATIONS 
       AND A TOTAL OF          7 INNER ITERATIONS.
    ------------------------------------------------

 NO OUTPUT CONTROL FOR STRESS PERIOD   25   TIME STEP    5
 
 SOLVING FOR HEAD 
                                                   Max.-Head-Change                         Max.-Flux-Residual
  Residual-Control   Outer-Iter.   Inner-Iter.     Column Row Layer    Maximum-Head-Change  Column Row Layer    Maximum-Flux-Residual          L2-NORM 
          0                 1           2             4    7     1       0.2436703446E-01       4    7    1         0.1283546081E+01      0.2748354912E+01
          0                 2           2             4    7     1      -0.2370261123E-02       4    7    1        -0.1283554947E+00      0.2748345999E+00
          0                 3           2             4    7     1       0.1614058670E-03       4    7    1         0.8984880118E-02      0.1923828114E-01
          0                 4           1             4    7     1      -0.6422491045E-05       4    7    1        -0.3674821469E-03      0.7868431491E-03

    ------------------------------------------------
       NWT REQUIRED            4 OUTER ITERATIONS 
       AND A TOTAL OF          7 INNER ITERATIONS.
    ------------------------------------------------

 NO OUTPUT CONTROL FOR STRESS PERIOD   25   TIME STEP    6
 
 SOLVING FOR HEAD 
                                                   Max.-Head-Change                         Max.-Flux-Residual
  Residual-Control   Outer-Iter.   Inner-Iter.     Column Row Layer    Maximum-Head-Change  Column Row Layer    Maximum-Flux-Residual          L2-NORM 
          0                 1           2             4    7     1       0.2403700184E-01       4    7    1         0.1266082509E+01      0.2716848555E+01
          0                 2           2             4    7     1      -0.2338157596E-02       4    7    1        -0.1266091136E+00      0.2716840025E+00
          0                 3           2             4    7     1       0.1592197393E-03       4    7    1         0.8862633620E-02      0.1901775258E-01
          0                 4           1             4    7     1      -0.6335502933E-05       4    7    1        -0.3624822557E-03      0.7778223203E-03

    ------------------------------------------------
       NWT REQUIRED            4 OUTER ITERATIONS 
       AND A TOTAL OF          7 INNER ITERATIONS.
    ------------------------------------------------

 NO OUTPUT CONTROL FOR STRESS PERIOD   25   TIME STEP    7
 
 SOLVING FOR HEAD 
                                                   Max.-Head-Change                         Max.-Flux-Residual
  Residual-Control   Outer-Iter.   Inner-Iter.     Column Row Layer    Maximum-Head-Change  Column Row Layer    Maximum-Flux-Residual          L2-NORM 
          0                 1           2             4    7     1       0.2371291121E-01       4    7    1         0.1248933933E+01      0.2685886593E+01
          0                 2           2             4    7     1      -0.2306632073E-02       4    7    1        -0.1248942329E+00      0.2685878701E+00
          0                 3           2             4    7     1       0.1570729714E-03       4    7    1         0.8742592134E-02      0.1880102930E-01
          0                 4           1             4    7     1      -0.6250081131E-05       4    7    1        -0.3575725523E-03      0.7689662465E-03

    ------------------------------------------------
       NWT REQUIRED            4 OUTER ITERATIONS 
       AND A TOTAL OF          7 INNER ITERATIONS.
    ------------------------------------------------

 NO OUTPUT CONTROL FOR STRESS PERIOD   25   TIME STEP    8
 
 SOLVING FOR HEAD 
                                                   Max.-Head-Change                         Max.-Flux-Residual
  Residual-Control   Outer-Iter.   Inner-Iter.     Column Row Layer    Maximum-Head-Change  Column Row Layer    Maximum-Flux-Residual          L2-NORM 
          0                 1           2             4    7     1       0.2339463339E-01       4    7    1         0.1232093439E+01      0.2655471130E+01
          0                 2           2             4    7     1      -0.2275671987E-02       4    7    1        -0.1232101609E+00      0.2655463384E+00
          0                 3           2             4    7     1       0.1549647075E-03       4    7    1         0.8624707264E-02      0.1858811532E-01
          0                 4           1             4    7     1      -0.6166191218E-05       4    7    1        -0.3527510462E-03      0.7602430177E-03

    ------------------------------------------------
       NWT REQUIRED            4 OUTER ITERATIONS 
       AND A TOTAL OF          7 INNER ITERATIONS.
    ------------------------------------------------

 NO OUTPUT CONTROL FOR STRESS PERIOD   25   TIME STEP    9
 
 SOLVING FOR HEAD 
                                                   Max.-Head-Change                         Max.-Flux-Residual
  Residual-Control   Outer-Iter.   Inner-Iter.     Column Row Layer    Maximum-Head-Change  Column Row Layer    Maximum-Flux-Residual          L2-NORM 
          0                 1           2             4    7     1       0.2308217485E-01       4    7    1         0.1215561684E+01      0.2625576321E+01
          0                 2           2             4    7     1      -0.2245277969E-02       4    7    1        -0.1215569637E+00      0.2625569162E+00
          0                 3           2             4    7     1       0.1528949908E-03       4    7    1         0.8508983611E-02      0.1837887137E-01
          0                 4           1             4    7     1      -0.6083835495E-05       4    7    1        -0.3480179494E-03      0.7516852069E-03

    ------------------------------------------------
       NWT REQUIRED            4 OUTER ITERATIONS 
       AND A TOTAL OF          7 INNER ITERATIONS.
    ------------------------------------------------

 NO OUTPUT CONTROL FOR STRESS PERIOD   25   TIME STEP   10
 
 SOLVING FOR HEAD 
                                                   Max.-Head-Change                         Max.-Flux-Residual
  Residual-Control   Outer-Iter.   Inner-Iter.     Column Row Layer    Maximum-Head-Change  Column Row Layer    Maximum-Flux-Residual          L2-NORM 
          0                 1           2             4    7     1       0.2277513540E-01       4    7    1         0.1199316939E+01      0.2596196343E+01
          0                 2           2             4    7     1      -0.2215411089E-02       4    7    1        -0.1199324679E+00      0.2596190152E+00
          0                 3           2             4    7     1       0.1508611698E-03       4    7    1         0.8395269051E-02      0.1817328307E-01
          0                 4           1             4    7     1      -0.6002907584E-05       4    7    1        -0.3433670072E-03      0.7432960019E-03

    ------------------------------------------------
       NWT REQUIRED            4 OUTER ITERATIONS 
       AND A TOTAL OF          7 INNER ITERATIONS.
    ------------------------------------------------

 NO OUTPUT CONTROL FOR STRESS PERIOD   25   TIME STEP   11
 
 SOLVING FOR HEAD 
                                                   Max.-Head-Change                         Max.-Flux-Residual
  Residual-Control   Outer-Iter.   Inner-Iter.     Column Row Layer    Maximum-Head-Change  Column Row Layer    Maximum-Flux-Residual          L2-NORM 
          0                 1           2             4    7     1       0.2247380421E-01       4    7    1         0.1183375231E+01      0.2567321410E+01
          0                 2           2             4    7     1      -0.2186099477E-02       4    7    1        -0.1183382765E+00      0.2567314926E+00
          0                 3           2             4    7     1       0.1488651612E-03       4    7    1         0.8283675813E-02      0.1797111147E-01
          0                 4           1             4    7     1      -0.5923484967E-05       4    7    1        -0.3388028558E-03      0.7350167316E-03

    ------------------------------------------------
       NWT REQUIRED            4 OUTER ITERATIONS 
       AND A TOTAL OF          7 INNER ITERATIONS.
    ------------------------------------------------

 NO OUTPUT CONTROL FOR STRESS PERIOD   25   TIME STEP   12
 
 SOLVING FOR HEAD 
                                                   Max.-Head-Change                         Max.-Flux-Residual
  Residual-Control   Outer-Iter.   Inner-Iter.     Column Row Layer    Maximum-Head-Change  Column Row Layer    Maximum-Flux-Residual          L2-NORM 
          0                 1           2             4    7     1       0.2217764738E-01       4    7    1         0.1167707418E+01      0.2538934595E+01
          0                 2           2             4    7     1      -0.2157291198E-02       4    7    1        -0.1167714753E+00      0.2538928486E+00
          0                 3           2             4    7     1       0.1469034267E-03       4    7    1         0.8173999863E-02      0.1777239962E-01
          0                 4           1             4    7     1      -0.5845425231E-05       4    7    1        -0.3343170888E-03      0.7269105774E-03

    ------------------------------------------------
       NWT REQUIRED            4 OUTER ITERATIONS 
       AND A TOTAL OF          7 INNER ITERATIONS.
    ------------------------------------------------

 NO OUTPUT CONTROL FOR STRESS PERIOD   25   TIME STEP   13
 
 SOLVING FOR HEAD 
                                                   Max.-Head-Change                         Max.-Flux-Residual
  Residual-Control   Outer-Iter.   Inner-Iter.     Column Row Layer    Maximum-Head-Change  Column Row Layer    Maximum-Flux-Residual          L2-NORM 
          0                 1           2             4    7     1       0.2188695590E-01       4    7    1         0.1152329957E+01      0.2511026334E+01
          0                 2           2             4    7     1      -0.2129014557E-02       4    7    1        -0.1152337098E+00      0.2511020416E+00
          0                 3           2             4    7     1       0.1449778954E-03       4    7    1         0.8066356423E-02      0.1757705875E-01
          0                 4           1             4    7     1      -0.5768806546E-05       4    7    1        -0.3299144751E-03      0.7188977444E-03

    ------------------------------------------------
       NWT REQUIRED            4 OUTER ITERATIONS 
       AND A TOTAL OF          7 INNER ITERATIONS.
    ------------------------------------------------

 NO OUTPUT CONTROL FOR STRESS PERIOD   25   TIME STEP   14
 
 SOLVING FOR HEAD 
                                                   Max.-Head-Change                         Max.-Flux-Residual
  Residual-Control   Outer-Iter.   Inner-Iter.     Column Row Layer    Maximum-Head-Change  Column Row Layer    Maximum-Flux-Residual          L2-NORM 
          0                 1           2             4    7     1       0.2160133481E-01       4    7    1         0.1137221152E+01      0.2483584071E+01
          0                 2           2             4    7     1      -0.2101231135E-02       4    7    1        -0.1137228105E+00      0.2483578069E+00
          0                 3           2             4    7     1       0.1430859500E-03       4    7    1         0.7960593602E-02      0.1738495617E-01
          0                 4           1             4    7     1      -0.5693524378E-05       4    7    1        -0.3255887673E-03      0.7110354227E-03

    ------------------------------------------------
       NWT REQUIRED            4 OUTER ITERATIONS 
       AND A TOTAL OF          7 INNER ITERATIONS.
    ------------------------------------------------

 NO OUTPUT CONTROL FOR STRESS PERIOD   25   TIME STEP   15
 
 SOLVING FOR HEAD 
                                                   Max.-Head-Change                         Max.-Flux-Residual
  Residual-Control   Outer-Iter.   Inner-Iter.     Column Row Layer    Maximum-Head-Change  Column Row Layer    Maximum-Flux-Residual          L2-NORM 
          0                 1           2             4    7     1       0.2132067480E-01       4    7    1         0.1122375238E+01      0.2456598385E+01
          0                 2           2             4    7     1      -0.2073930298E-02       4    7    1        -0.1122382008E+00      0.2456592486E+00
          0                 3           2             4    7     1       0.1412268667E-03       4    7    1         0.7856671041E-02      0.1719605358E-01
          0                 4           1             4    7     1      -0.5619549599E-05       4    7    1        -0.3213383225E-03      0.7033135780E-03

    ------------------------------------------------
       NWT REQUIRED            4 OUTER ITERATIONS 
       AND A TOTAL OF          7 INNER ITERATIONS.
    ------------------------------------------------

 NO OUTPUT CONTROL FOR STRESS PERIOD   25   TIME STEP   16
 
 SOLVING FOR HEAD 
                                                   Max.-Head-Change                         Max.-Flux-Residual
  Residual-Control   Outer-Iter.   Inner-Iter.     Column Row Layer    Maximum-Head-Change  Column Row Layer    Maximum-Flux-Residual          L2-NORM 
          0                 1           2             4    7     1       0.2104513657E-01       4    7    1         0.1107801263E+01      0.2430064571E+01
          0                 2           2             4    7     1      -0.2047127680E-02       4    7    1        -0.1107807855E+00      0.2430058748E+00
          0                 3           2             4    7     1       0.1394017105E-03       4    7    1         0.7754652102E-02      0.1701033732E-01
          0                 4           1             4    7     1      -0.5546924921E-05       4    7    1        -0.3171657413E-03      0.6957491942E-03

    ------------------------------------------------
       NWT REQUIRED            4 OUTER ITERATIONS 
       AND A TOTAL OF          7 INNER ITERATIONS.
    ------------------------------------------------

 NO OUTPUT CONTROL FOR STRESS PERIOD   25   TIME STEP   17
 
 SOLVING FOR HEAD 
                                                   Max.-Head-Change                         Max.-Flux-Residual
  Residual-Control   Outer-Iter.   Inner-Iter.     Column Row Layer    Maximum-Head-Change  Column Row Layer    Maximum-Flux-Residual          L2-NORM 
          0                 1           2             4    7     1       0.2077433139E-01       4    7    1         0.1093478128E+01      0.2403964617E+01
          0                 2           2             4    7     1      -0.2020785465E-02       4    7    1        -0.1093484548E+00      0.2403958942E+00
          0                 3           2             4    7     1       0.1376079059E-03       4    7    1         0.7654389074E-02      0.1682763809E-01
          0                 4           1             4    7     1      -0.5475547766E-05       4    7    1        -0.3130649866E-03      0.6882477097E-03

    ------------------------------------------------
       NWT REQUIRED            4 OUTER ITERATIONS 
       AND A TOTAL OF          7 INNER ITERATIONS.
    ------------------------------------------------

 NO OUTPUT CONTROL FOR STRESS PERIOD   25   TIME STEP   18
 
 SOLVING FOR HEAD 
                                                   Max.-Head-Change                         Max.-Flux-Residual
  Residual-Control   Outer-Iter.   Inner-Iter.     Column Row Layer    Maximum-Head-Change  Column Row Layer    Maximum-Flux-Residual          L2-NORM 
          0                 1           2             4    7     1       0.2050842573E-01       4    7    1         0.1079415111E+01      0.2378298577E+01
          0                 2           2             4    7     1      -0.1994919848E-02       4    7    1        -0.1079421363E+00      0.2378292936E+00
          0                 3           2             4    7     1       0.1358465555E-03       4    7    1         0.7555946901E-02      0.1664795914E-01
          0                 4           1             4    7     1      -0.5405461882E-05       4    7    1        -0.3090386717E-03      0.6808951590E-03

    ------------------------------------------------
       NWT REQUIRED            4 OUTER ITERATIONS 
       AND A TOTAL OF          7 INNER ITERATIONS.
    ------------------------------------------------

 NO OUTPUT CONTROL FOR STRESS PERIOD   25   TIME STEP   19
 
 SOLVING FOR HEAD 
                                                   Max.-Head-Change                         Max.-Flux-Residual
  Residual-Control   Outer-Iter.   Inner-Iter.     Column Row Layer    Maximum-Head-Change  Column Row Layer    Maximum-Flux-Residual          L2-NORM 
          0                 1           2             4    7     1       0.2024703936E-01       4    7    1         0.1065591409E+01      0.2353048930E+01
          0                 2           2             4    7     1      -0.1969493841E-02       4    7    1        -0.1065597498E+00      0.2353043291E+00
          0                 3           2             4    7     1       0.1341151410E-03       4    7    1         0.7459179948E-02      0.1647121933E-01
          0                 4           1             4    7     1      -0.5336567224E-05       4    7    1        -0.3050809105E-03      0.6736752476E-03

    ------------------------------------------------
       NWT REQUIRED            4 OUTER ITERATIONS 
       AND A TOTAL OF          7 INNER ITERATIONS.
    ------------------------------------------------

 NO OUTPUT CONTROL FOR STRESS PERIOD   25   TIME STEP   20
 
 SOLVING FOR HEAD 
                                                   Max.-Head-Change                         Max.-Flux-Residual
  Residual-Control   Outer-Iter.   Inner-Iter.     Column Row Layer    Maximum-Head-Change  Column Row Layer    Maximum-Flux-Residual          L2-NORM 
          0                 1           2             4    7     1       0.1999034157E-01       4    7    1         0.1052016742E+01      0.2328210762E+01
          0                 2           2             4    7     1      -0.1944523913E-02       4    7    1        -0.1052022673E+00      0.2328205247E+00
          0                 3           2             4    7     1       0.1324147837E-03       4    7    1         0.7364156281E-02      0.1629735572E-01
          0                 4           1             4    7     1      -0.5268908575E-05       4    7    1        -0.3011944364E-03      0.6665572788E-03

    ------------------------------------------------
       NWT REQUIRED            4 OUTER ITERATIONS 
       AND A TOTAL OF          7 INNER ITERATIONS.
    ------------------------------------------------

 NO OUTPUT CONTROL FOR STRESS PERIOD   25   TIME STEP   21
 
 SOLVING FOR HEAD 
                                                   Max.-Head-Change                         Max.-Flux-Residual
  Residual-Control   Outer-Iter.   Inner-Iter.     Column Row Layer    Maximum-Head-Change  Column Row Layer    Maximum-Flux-Residual          L2-NORM 
          0                 1           2             4    7     1       0.1973808593E-01       4    7    1         0.1038677812E+01      0.2303768060E+01
          0                 2           2             4    7     1      -0.1919986091E-02       4    7    1        -0.1038683590E+00      0.2303762403E+00
          0                 3           2             4    7     1       0.1307438512E-03       4    7    1         0.7270782807E-02      0.1612624658E-01
          0                 4           1             4    7     1      -0.5202420313E-05       4    7    1        -0.2973754454E-03      0.6595540878E-03

    ------------------------------------------------
       NWT REQUIRED            4 OUTER ITERATIONS 
       AND A TOTAL OF          7 INNER ITERATIONS.
    ------------------------------------------------

 NO OUTPUT CONTROL FOR STRESS PERIOD   25   TIME STEP   22
 
 SOLVING FOR HEAD 
                                                   Max.-Head-Change                         Max.-Flux-Residual
  Residual-Control   Outer-Iter.   Inner-Iter.     Column Row Layer    Maximum-Head-Change  Column Row Layer    Maximum-Flux-Residual          L2-NORM 
          0                 1           2             4    7     1       0.1949017799E-01       4    7    1         0.1025569200E+01      0.2279717527E+01
          0                 2           2             4    7     1      -0.1895871188E-02       4    7    1        -0.1025574829E+00      0.2279711821E+00
          0                 3           2             4    7     1       0.1291017181E-03       4    7    1         0.7179021592E-02      0.1595787552E-01
          0                 4           1             4    7     1      -0.5137078723E-05       4    7    1        -0.2936224200E-03      0.6526485703E-03

    ------------------------------------------------
       NWT REQUIRED            4 OUTER ITERATIONS 
       AND A TOTAL OF          7 INNER ITERATIONS.
    ------------------------------------------------

 NO OUTPUT CONTROL FOR STRESS PERIOD   25   TIME STEP   23
 
 SOLVING FOR HEAD 
                                                   Max.-Head-Change                         Max.-Flux-Residual
  Residual-Control   Outer-Iter.   Inner-Iter.     Column Row Layer    Maximum-Head-Change  Column Row Layer    Maximum-Flux-Residual          L2-NORM 
          0                 1           2             4    7     1       0.1924651927E-01       4    7    1         0.1012686009E+01      0.2256054284E+01
          0                 2           2             4    7     1      -0.1872169625E-02       4    7    1        -0.1012691494E+00      0.2256048805E+00
          0                 3           1             4    7     1       0.1274877332E-03       4    7    1         0.7088838329E-02      0.1579227610E-01
          0                 4           1             4    7     1      -0.5072858475E-05       4    7    1        -0.2899339042E-03      0.6458989765E-03

    ------------------------------------------------
       NWT REQUIRED            4 OUTER ITERATIONS 
       AND A TOTAL OF          6 INNER ITERATIONS.
    ------------------------------------------------

 NO OUTPUT CONTROL FOR STRESS PERIOD   25   TIME STEP   24
 
 SOLVING FOR HEAD 
                                                   Max.-Head-Change                         Max.-Flux-Residual
  Residual-Control   Outer-Iter.   Inner-Iter.     Column Row Layer    Maximum-Head-Change  Column Row Layer    Maximum-Flux-Residual          L2-NORM 
          0                 1           2             4    7     1       0.1900715113E-01       4    7    1         0.1000030494E+01      0.2232763669E+01
          0                 2           2             4    7     1      -0.1848885424E-02       4    7    1        -0.1000035839E+00      0.2232758096E+00
          0                 3           1             4    7     1       0.1259021675E-03       4    7    1         0.7000248831E-02      0.1562921828E-01
          0                 4           1             4    7     1      -0.5009767053E-05       4    7    1        -0.2863105874E-03      0.6392323985E-03

    ------------------------------------------------
       NWT REQUIRED            4 OUTER ITERATIONS 
       AND A TOTAL OF          6 INNER ITERATIONS.
    ------------------------------------------------

 NO OUTPUT CONTROL FOR STRESS PERIOD   25   TIME STEP   25
 
 SOLVING FOR HEAD 
                                                   Max.-Head-Change                         Max.-Flux-Residual
  Residual-Control   Outer-Iter.   Inner-Iter.     Column Row Layer    Maximum-Head-Change  Column Row Layer    Maximum-Flux-Residual          L2-NORM 
          0                 1           2             4    7     1       0.1877184059E-01       4    7    1         0.9875900792E+00      0.2209845908E+01
          0                 2           2             4    7     1      -0.1825995923E-02       4    7    1        -0.9875952873E-01      0.2209840140E+00
          0                 3           1             4    7     1       0.1243434796E-03       4    7    1         0.6913165067E-02      0.1546880202E-01
          0                 4           1             4    7     1      -0.4947745973E-05       4    7    1        -0.2827488684E-03      0.6326643852E-03

    ------------------------------------------------
       NWT REQUIRED            4 OUTER ITERATIONS 
       AND A TOTAL OF          6 INNER ITERATIONS.
    ------------------------------------------------

 NO OUTPUT CONTROL FOR STRESS PERIOD   25   TIME STEP   26
 
 SOLVING FOR HEAD 
                                                   Max.-Head-Change                         Max.-Flux-Residual
  Residual-Control   Outer-Iter.   Inner-Iter.     Column Row Layer    Maximum-Head-Change  Column Row Layer    Maximum-Flux-Residual          L2-NORM 
          0                 1           2             4    7     1       0.1854049895E-01       4    7    1         0.9753600437E+00      0.2187281256E+01
          0                 2           2             4    7     1      -0.1803492494E-02       4    7    1        -0.9753651191E-01      0.2187275621E+00
          0                 3           1             4    7     1       0.1228110813E-03       4    7    1         0.6827553989E-02      0.1531086047E-01
          0                 4           1             4    7     1      -0.4886769906E-05       4    7    1        -0.2792473615E-03      0.6262108506E-03

    ------------------------------------------------
       NWT REQUIRED            4 OUTER ITERATIONS 
       AND A TOTAL OF          6 INNER ITERATIONS.
    ------------------------------------------------

 NO OUTPUT CONTROL FOR STRESS PERIOD   25   TIME STEP   27
 
 SOLVING FOR HEAD 
                                                   Max.-Head-Change                         Max.-Flux-Residual
  Residual-Control   Outer-Iter.   Inner-Iter.     Column Row Layer    Maximum-Head-Change  Column Row Layer    Maximum-Flux-Residual          L2-NORM 
          0                 1           2             4    7     1       0.1831316984E-01       4    7    1         0.9633431507E+00      0.2165068052E+01
          0                 2           2             4    7     1      -0.1781379380E-02       4    7    1        -0.9633480973E-01      0.2165062234E+00
          0                 3           1             4    7     1       0.1213052622E-03       4    7    1         0.6743434915E-02      0.1515534882E-01
          0                 4           1             4    7     1      -0.4826852092E-05       4    7    1        -0.2758068931E-03      0.6198466827E-03

    ------------------------------------------------
       NWT REQUIRED            4 OUTER ITERATIONS 
       AND A TOTAL OF          6 INNER ITERATIONS.
    ------------------------------------------------

 NO OUTPUT CONTROL FOR STRESS PERIOD   25   TIME STEP   28
 
 SOLVING FOR HEAD 
                                                   Max.-Head-Change                         Max.-Flux-Residual
  Residual-Control   Outer-Iter.   Inner-Iter.     Column Row Layer    Maximum-Head-Change  Column Row Layer    Maximum-Flux-Residual          L2-NORM 
          0                 1           2             4    7     1       0.1808976583E-01       4    7    1         0.9515343010E+00      0.2143211617E+01
          0                 2           2             4    7     1      -0.1759648605E-02       4    7    1        -0.9515391226E-01      0.2143545921E+00
          0                 3           1             4    7     1       0.1198254787E-03       4    7    1         0.6660772164E-02      0.1500473056E-01
          0                 4           1             4    7     1      -0.4767970311E-05       4    7    1        -0.2724259871E-03      0.6136883465E-03

    ------------------------------------------------
       NWT REQUIRED            4 OUTER ITERATIONS 
       AND A TOTAL OF          6 INNER ITERATIONS.
    ------------------------------------------------

 NO OUTPUT CONTROL FOR STRESS PERIOD   25   TIME STEP   29
 
 SOLVING FOR HEAD 
                                                   Max.-Head-Change                         Max.-Flux-Residual
  Residual-Control   Outer-Iter.   Inner-Iter.     Column Row Layer    Maximum-Head-Change  Column Row Layer    Maximum-Flux-Residual          L2-NORM 
          0                 1           2             4    7     1       0.1787019286E-01       4    7    1         0.9399289344E+00      0.2121786552E+01
          0                 2           2             4    7     1      -0.1738289435E-02       4    7    1        -0.9399336346E-01      0.2121778981E+00
          0                 3           1             4    7     1       0.1183710005E-03       4    7    1         0.6579533846E-02      0.1485235397E-01
          0                 4           1             4    7     1      -0.4710095321E-05       4    7    1        -0.2691033374E-03      0.6074523843E-03

    ------------------------------------------------
       NWT REQUIRED            4 OUTER ITERATIONS 
       AND A TOTAL OF          6 INNER ITERATIONS.
    ------------------------------------------------

 NO OUTPUT CONTROL FOR STRESS PERIOD   25   TIME STEP   30



 STREAM LISTING     PERIOD     25   STEP       30

 LAYER ROW COL. STREAM  RCH.  FLOW INTO     FLOW TO   FLOW OUT OF   OVRLND.     DIRECT     STREAM       STREAM     STREAM     STREAM   STREAMBED  STREAMBED
                SEG.NO.  NO.  STRM. RCH.    AQUIFER    STRM. RCH.    RUNOFF     PRECIP       ET          HEAD       DEPTH      WIDTH   CONDCTNC.   GRADIENT

   1    1    1     1     1    1.4942E+01  1.8668E-01   1.4756E+01  0.000E+00  0.000E+00  0.000E+00  1.09406E+03  1.009E+00  1.035E+01  4.656E-02  1.336E+00
   1    2    2     1     2    1.4756E+01  2.8774E-01   1.4468E+01  0.000E+00  0.000E+00  0.000E+00  1.08906E+03  1.004E+00  1.027E+01  7.186E-02  1.335E+00
   1    3    3     1     3    1.4468E+01  2.4407E-01   1.4224E+01  0.000E+00  0.000E+00  0.000E+00  1.08342E+03  9.991E-01  1.017E+01  6.103E-02  1.333E+00
   1    3    4     1     4    1.4224E+01  2.2366E-01   1.4000E+01  0.000E+00  0.000E+00  0.000E+00  1.07840E+03  9.944E-01  1.009E+01  5.599E-02  1.331E+00
   1    4    5     2     1    1.2000E+01  2.9419E-01   1.1706E+01  0.000E+00  0.000E+00  0.000E+00  1.07271E+03  7.717E-01  1.200E+01  7.800E-02  1.257E+00
   1    5    6     2     2    1.1706E+01  2.2569E-01   1.1480E+01  0.000E+00  0.000E+00  0.000E+00  1.06727E+03  7.615E-01  1.200E+01  6.000E-02  1.254E+00
   1    6    6     2     3    1.1480E+01  2.2515E-01   1.1255E+01  0.000E+00  0.000E+00  0.000E+00  1.06255E+03  7.526E-01  1.200E+01  6.000E-02  1.251E+00
   1    7    6     2     4    1.1255E+01  2.2462E-01   1.1031E+01  0.000E+00  0.000E+00  0.000E+00  1.05782E+03  7.436E-01  1.200E+01  6.000E-02  1.248E+00
   1    8    6     2     5    1.1031E+01  2.2408E-01   1.0807E+01  0.000E+00  0.000E+00  0.000E+00  1.05309E+03  7.346E-01  1.200E+01  6.000E-02  1.245E+00
   1    3    5     3     1    2.0000E+00  2.8252E-01   1.7175E+00  0.000E+00  0.000E+00  0.000E+00  1.07555E+03  1.909E+00  9.636E+00  7.227E-02  1.955E+00
   1    3    6     3     2    1.7175E+00  2.4905E-01   1.4684E+00  0.000E+00  0.000E+00  0.000E+00  1.07264E+03  1.727E+00  8.909E+00  6.682E-02  1.864E+00
   1    3    7     3     3    1.4684E+00  1.9718E-01   1.2712E+00  0.000E+00  0.000E+00  0.000E+00  1.06987E+03  1.555E+00  8.218E+00  5.547E-02  1.777E+00
   1    4    8     3     4    1.2712E+00  2.2567E-01   1.0456E+00  0.000E+00  0.000E+00  0.000E+00  1.06682E+03  1.364E+00  7.455E+00  6.709E-02  1.682E+00
   1    5    8     3     5    1.0456E+00  1.5790E-01   8.8768E-01  0.000E+00  0.000E+00  0.000E+00  1.06362E+03  1.164E+00  6.655E+00  4.991E-02  1.582E+00
   1    6    8     3     6    8.8768E-01  5.5980E-02   8.3170E-01  0.000E+00  0.000E+00  0.000E+00  1.06158E+03  1.036E+00  6.145E+00  1.844E-02  1.518E+00
   1    5   10     4     1    1.0000E+01  9.0919E-02   9.9091E+00  0.000E+00  0.000E+00  0.000E+00  1.07836E+03  6.368E-01  1.000E+01  2.500E-02  1.212E+00
   1    5    9     4     2    9.9091E+00  1.8158E-01   9.7275E+00  0.000E+00  0.000E+00  0.000E+00  1.07154E+03  6.315E-01  1.000E+01  5.000E-02  1.211E+00
   1    6    8     4     3    9.7275E+00  1.2689E-01   9.6006E+00  0.000E+00  0.000E+00  0.000E+00  1.06381E+03  6.256E-01  1.000E+01  3.500E-02  1.209E+00
   1    6    8     5     1    1.0432E+01  2.2686E-01   1.0205E+01  0.000E+00  0.000E+00  0.000E+00  1.05868E+03  6.790E-01  1.542E+01  6.166E-02  1.226E+00
   1    7    7     5     2    1.0205E+01  2.7894E-01   9.9265E+00  0.000E+00  0.000E+00  0.000E+00  1.05417E+03  6.732E-01  1.519E+01  7.594E-02  1.224E+00
   1    8    7     5     3    9.9265E+00  1.9221E-01   9.7343E+00  0.000E+00  0.000E+00  0.000E+00  1.04992E+03  6.676E-01  1.497E+01  5.241E-02  1.223E+00
   1    8    6     5     4    9.7343E+00  1.3577E-01   9.5985E+00  0.000E+00  0.000E+00  0.000E+00  1.04691E+03  6.637E-01  1.482E+01  3.706E-02  1.221E+00
   1    9    6     6     1    2.0405E+01  2.4462E-01   2.0161E+01  0.000E+00  0.000E+00  0.000E+00  1.04380E+03  1.077E+00  1.200E+01  6.000E-02  1.359E+00
   1   10    7     6     2    2.0161E+01  2.4416E-01   1.9916E+01  0.000E+00  0.000E+00  0.000E+00  1.03925E+03  1.069E+00  1.200E+01  6.000E-02  1.356E+00
   1   11    7     6     3    1.9916E+01  2.4369E-01   1.9673E+01  0.000E+00  0.000E+00  0.000E+00  1.03470E+03  1.061E+00  1.200E+01  6.000E-02  1.354E+00
   1   12    7     6     4    1.9673E+01  2.4322E-01   1.9429E+01  0.000E+00  0.000E+00  0.000E+00  1.03014E+03  1.054E+00  1.200E+01  6.000E-02  1.351E+00
   1   13    7     6     5    1.9429E+01 -2.7953E-02   1.9457E+01  0.000E+00  0.000E+00  0.000E+00  1.02696E+03  1.050E+00  1.200E+01  2.400E-01 -3.882E-02
   1   14    9     7     1    1.5000E+02  1.3372E+00   1.4866E+02  0.000E+00  0.000E+00  0.000E+00  1.03987E+03  2.288E+00  5.529E+01  5.593E-01  7.969E-01
   1   13    8     7     2    1.4866E+02  1.8318E+00   1.4683E+02  0.000E+00  0.000E+00  0.000E+00  1.03478E+03  2.279E+00  5.526E+01  6.148E-01  9.932E-01
   1   13    7     7     3    1.4683E+02  1.4599E+00   1.4537E+02  0.000E+00  0.000E+00  0.000E+00  1.02969E+03  2.271E+00  5.522E+01  5.585E-01  8.714E-01
   1   13    6     8     1    1.6483E+02  8.8432E-01   1.6394E+02  0.000E+00  0.000E+00  0.000E+00  1.02479E+03  2.915E+00  4.227E+01  4.308E-01  6.843E-01
   1   13    5     8     2    1.6394E+02  1.4774E-01   1.6380E+02  0.000E+00  0.000E+00  0.000E+00  1.01854E+03  2.912E+00  4.222E+01  4.303E-01  1.145E-01
   1   13    4     8     3    1.6380E+02 -2.5176E+00   1.6631E+02  0.000E+00  0.000E+00  0.000E+00  1.01229E+03  2.920E+00  4.234E+01  4.314E+00 -1.945E-01
   1   13    3     8     4    1.6631E+02 -3.6907E+00   1.7000E+02  0.000E+00  0.000E+00  0.000E+00  1.00607E+03  2.940E+00  4.263E+01  4.344E+00 -2.832E-01
   1   13    2     8     5    1.7000E+02 -2.5885E+00   1.7259E+02  0.000E+00  0.000E+00  0.000E+00  9.99836E+02  2.961E+00  4.293E+01  4.375E+00 -1.972E-01
   1   13    1     8     6    1.7259E+02 -1.9829E+00   1.7458E+02  0.000E+00  0.000E+00  0.000E+00  9.94850E+02  2.975E+00  4.314E+01  2.638E+00 -2.506E-01
   1    8    6     9     1    0.0000E+00  0.0000E+00   0.0000E+00  0.000E+00  0.000E+00  0.000E+00  1.07875E+03  0.000E+00  4.000E+00  0.000E+00  1.000E+00
   1    8    5     9     2    0.0000E+00  0.0000E+00   0.0000E+00  0.000E+00  0.000E+00  0.000E+00  1.07825E+03  0.000E+00  4.000E+00  0.000E+00  1.000E+00





UNSATURATED ZONE PACKAGE VOLUMETRIC BUDGET FOR  TIME STEP    30 STRESS PERIOD   25
  ------------------------------------------------------------------------------



     CUMULATIVE VOLUMES      L**3       RATES FOR THIS TIME STEP      L**3/T
     ------------------                 ------------------------

           IN:                                      IN:
           ---                                      ---
        INFILTRATION =   992728862.3884          INFILTRATION =           0.8475

          OUT:                                     OUT:
          ----                                     ----
              UZF ET =   860197319.7349                UZF ET =           0.7500
        UZF RECHARGE =       73224.0000          UZF RECHARGE =       0.0000E+00

            IN - OUT =   132458318.6535              IN - OUT =       9.7500E-02

          STORAGE:                                 STORAGE:
          --------                                 --------
      STORAGE CHANGE =   132459594.8412        STORAGE CHANGE =       9.7500E-02

 PERCENT DISCREPANCY IS DIFFERENCE BETWEEN IN-OUT MINUS CHANGE IN STORAGE
 DIVIDED BY THE AVERAGE OF IN AND OUT TIMES 100

 PERCENT DISCREPANCY =          -0.00     PERCENT DISCREPANCY =           0.00






1
  VOLUMETRIC BUDGET FOR AGRICULTURAL FIELDS AT  END OF TIME STEP   30, STRESS PERIOD  25
  ------------------------------------------------------------------------------

     CUMULATIVE VOLUMES      L**3       RATES FOR THIS TIME STEP      L**3/T
     ------------------                 ------------------------

           IN:                                      IN:
           ---                                      ---
               AG WELLS  =   328055200.0000                 AG WELLS  =           0.0000
      DIVERSION SEGMENTS =   611151808.0000        DIVERSION SEGMENTS =           0.0000
       IRRIGATION PONDS  =           0.0000         IRRIGATION PONDS  =           0.0000
           GW IRRIGATION =           0.0000             GW IRRIGATION =           0.0000
           SW IRRIGATION =           0.0000             SW IRRIGATION =           0.0000
        SYSTEM LOSSES GW =           0.0000          SYSTEM LOSSES GW =           0.0000
        SYSTEM LOSSES SW =           0.0000          SYSTEM LOSSES SW =           0.0000

                TOTAL IN =   939207040.0000                  TOTAL IN =           0.0000

          OUT:                                     OUT:
          ----                                     ----
               AG WELLS  =           0.0000                 AG WELLS  =           0.0000
      DIVERSION SEGMENTS =           0.0000        DIVERSION SEGMENTS =           0.0000
       IRRIGATION PONDS  =           0.0000         IRRIGATION PONDS  =           0.0000
           GW IRRIGATION =   328055200.0000             GW IRRIGATION =           0.0000
           SW IRRIGATION =   611163648.0000             SW IRRIGATION =           0.0000
        SYSTEM LOSSES GW =           0.0000          SYSTEM LOSSES GW =           0.0000
        SYSTEM LOSSES SW =           0.0000          SYSTEM LOSSES SW =           0.0000

               TOTAL OUT =   939218816.0000                 TOTAL OUT =           0.0000

                IN - OUT =      -11776.0000                  IN - OUT =           0.0000

     PERCENT DISCREPANCY =          -0.00         PERCENT DISCREPANCY =           0.00



1
  VOLUMETRIC BUDGET FOR ENTIRE MODEL AT END OF TIME STEP   30, STRESS PERIOD  25
  ------------------------------------------------------------------------------

     CUMULATIVE VOLUMES      L**3       RATES FOR THIS TIME STEP      L**3/T
     ------------------                 ------------------------

           IN:                                      IN:
           ---                                      ---
             STORAGE     =   540274304.0000               STORAGE     =           6.1289
       CONSTANT HEAD     =           0.0000         CONSTANT HEAD     =           0.0000
     HEAD DEP BOUNDS     =    18062110.0000       HEAD DEP BOUNDS     =           0.2859
      STREAM LEAKAGE     =   748970496.0000        STREAM LEAKAGE     =          11.1740
        UZF RECHARGE     =       73223.9531          UZF RECHARGE     =           0.0000
               GW ET     =           0.0000                 GW ET     =           0.0000
     SURFACE LEAKAGE     =           0.0000       SURFACE LEAKAGE     =           0.0000
           AG WELLS      =           0.0000             AG WELLS      =           0.0000

                TOTAL IN =  1307380096.0000                  TOTAL IN =          17.5888

          OUT:                                     OUT:
          ----                                     ----
             STORAGE     =   271671712.0000               STORAGE     =           6.4922
       CONSTANT HEAD     =           0.0000         CONSTANT HEAD     =           0.0000
     HEAD DEP BOUNDS     =    18366666.0000       HEAD DEP BOUNDS     =           0.2889
      STREAM LEAKAGE     =   686963328.0000        STREAM LEAKAGE     =          10.8077
        UZF RECHARGE     =           0.0000          UZF RECHARGE     =           0.0000
               GW ET     =     2326724.7500                 GW ET     =           0.0000
     SURFACE LEAKAGE     =           0.0000       SURFACE LEAKAGE     =           0.0000
           AG WELLS      =   328055200.0000             AG WELLS      =           0.0000

               TOTAL OUT =  1307383680.0000                 TOTAL OUT =          17.5888

                IN - OUT =       -3584.0000                  IN - OUT =       5.7220E-06

     PERCENT DISCREPANCY =          -0.00         PERCENT DISCREPANCY =           0.00






         TIME SUMMARY AT END OF TIME STEP   30 IN STRESS PERIOD   25
                    SECONDS     MINUTES      HOURS       DAYS        YEARS
                    -----------------------------------------------------------
   TIME STEP LENGTH  87667.      1461.1      24.352      1.0147     2.77799E-03
 STRESS PERIOD TIME 2.63000E+06  43833.      730.56      30.440     8.33397E-02
         TOTAL TIME 6.32067E+07 1.05345E+06  17557.      731.56      2.0029    
1
1
                            STRESS PERIOD NO.   26, LENGTH =   2630000.    
                            -----------------------------------------------

                              NUMBER OF TIME STEPS =    30

                               MULTIPLIER FOR DELT =     1.000

                            INITIAL TIME STEP SIZE =   87666.66    

 REUSING NON-PARAMETER GHB CELLS FROM LAST STRESS PERIOD

      2 GHB CELLS

 REUSING STREAM SEGMENT DATA FROM LAST STRESS PERIOD



            AREAL INFILTRATION RATE
 READING ON UNIT   19 WITH FORMAT: (FREE)              

            1           2           3           4           5           6           7           8           9          10
 ........................................................................................................................
   1   1.0000E-10  2.0000E-10   0.000       0.000       0.000       0.000       0.000       0.000       0.000       0.000    
   2   2.0000E-10  1.0000E-10  2.0000E-10   0.000       0.000      8.0000E-10  8.0000E-10  5.0000E-10   0.000       0.000    
   3    0.000      5.0000E-10  1.0000E-10  1.0000E-10  8.0000E-10  8.0000E-10  5.0000E-10  5.0000E-10   0.000       0.000    
   4   8.0000E-10  5.0000E-10  1.0000E-10  1.0000E-10  1.0000E-10  1.0000E-10  1.0000E-10  1.0000E-10  2.0000E-10   0.000    
   5   8.0000E-10  5.0000E-10  1.0000E-10  1.0000E-10  1.0000E-10  1.0000E-10  1.0000E-10  1.0000E-10  1.0000E-10  1.0000E-10
   6   8.0000E-10  5.0000E-10  5.0000E-10  2.0000E-10  2.0000E-10  1.0000E-10  1.0000E-10  1.0000E-10  1.0000E-10  5.0000E-10
   7   8.0000E-10  5.0000E-10  5.0000E-10  2.0000E-10  2.0000E-10  1.0000E-10  1.0000E-10  2.0000E-10  2.0000E-10   0.000    
   8    0.000      5.0000E-10  5.0000E-10  2.0000E-10  2.0000E-10  1.0000E-10  1.0000E-10  2.0000E-10  5.0000E-10   0.000    
   9    0.000      5.0000E-10  5.0000E-10  2.0000E-10  2.0000E-10  1.0000E-10  1.0000E-10  2.0000E-10  5.0000E-10   0.000    
  10    0.000      5.0000E-10  5.0000E-10  2.0000E-10  2.0000E-10  1.0000E-10  1.0000E-10  2.0000E-10  5.0000E-10  8.0000E-10
  11    0.000      1.0000E-10  1.0000E-10  1.0000E-10  1.0000E-10  1.0000E-10  1.0000E-10  2.0000E-10  5.0000E-10   0.000    
  12   1.0000E-10  1.0000E-10  1.0000E-10  1.0000E-10  1.0000E-10  1.0000E-10  1.0000E-10  1.0000E-10  2.0000E-10   0.000    
  13   1.0000E-10  1.0000E-10  2.0000E-10  2.0000E-10  2.0000E-10  2.0000E-10  2.0000E-10  1.0000E-10  1.0000E-10   0.000    
  14    0.000      2.0000E-10  5.0000E-10  5.0000E-10  5.0000E-10  5.0000E-10  5.0000E-10  2.0000E-10  1.0000E-10   0.000    
  15    0.000       0.000      8.0000E-10  8.0000E-10  8.0000E-10  8.0000E-10   0.000       0.000       0.000       0.000    

                  ET RATE =  5.000000E-10

 USING ET EXTINCTION DEPTH FROM PREVIOUS STRESS PERIOD. CURRENT PERIOD IS:      26

 USING EXTINCTION WATER CONTENT FROM PREVIOUS STRESS PERIOD. CURRENT PERIOD IS:      26

 USING AIR ENTRY PRESSURE FROM PREVIOUS STRESS PERIOD. CURRENT PERIOD IS:      26

 USING ROOT PRESSURE HEAD FROM PREVIOUS STRESS PERIOD. CURRENT PERIOD IS:      26

 USING ROOT ACTIVITY FROM PREVIOUS STRESS PERIOD. CURRENT PERIOD IS:      26

 PROCESSING AG STRESS PERIOD DATA

 READING AG STRESS PERIOD DATA

 READING IRRIGATION SEGMENT

 READING IRRIGATION WELL

 READING SUPPLEMENTAL WELL

 NO IRRPOND OR REUSING IRRPOND DATA FROM LAST STRESS PERIOD

 END PROCESSING AG STRESS PERIOD DATA OPTIONS
 
 SOLVING FOR HEAD 
                                                   Max.-Head-Change                         Max.-Flux-Residual
  Residual-Control   Outer-Iter.   Inner-Iter.     Column Row Layer    Maximum-Head-Change  Column Row Layer    Maximum-Flux-Residual          L2-NORM 
          0                 1           2             4    7     1       0.1765422568E-01       4    7    1         0.9285148958E+00      0.2102361852E+01
          0                 2           2             4    7     1      -0.1717281543E-02       4    7    1        -0.9285194780E-01      0.2102327434E+00
          0                 3           1             4    7     1       0.1169404424E-03       4    7    1         0.6499634809E-02      0.1471596977E-01
          0                 4           1             4    7     1      -0.4653171975E-05       4    7    1        -0.2658354624E-03      0.6018592018E-03

    ------------------------------------------------
       NWT REQUIRED            4 OUTER ITERATIONS 
       AND A TOTAL OF          6 INNER ITERATIONS.
    ------------------------------------------------

 NO OUTPUT CONTROL FOR STRESS PERIOD   26   TIME STEP    1
 
 SOLVING FOR HEAD 
                                                   Max.-Head-Change                         Max.-Flux-Residual
  Residual-Control   Outer-Iter.   Inner-Iter.     Column Row Layer    Maximum-Head-Change  Column Row Layer    Maximum-Flux-Residual          L2-NORM 
          0                 1           2             4    7     1       0.1744193791E-01       4    7    1         0.9172951454E+00      0.2077278529E+01
          0                 2           2             4    7     1      -0.1696631561E-02       4    7    1        -0.9172996128E-01      0.2077272804E+00
          0                 3           1             4    7     1       0.1155342570E-03       4    7    1         0.6421095842E-02      0.1454078472E-01
          0                 4           1             4    7     1      -0.4597218580E-05       4    7    1        -0.2626232085E-03      0.5946719639E-03

    ------------------------------------------------
       NWT REQUIRED            4 OUTER ITERATIONS 
       AND A TOTAL OF          6 INNER ITERATIONS.
    ------------------------------------------------

 NO OUTPUT CONTROL FOR STRESS PERIOD   26   TIME STEP    2
 
 SOLVING FOR HEAD 
                                                   Max.-Head-Change                         Max.-Flux-Residual
  Residual-Control   Outer-Iter.   Inner-Iter.     Column Row Layer    Maximum-Head-Change  Column Row Layer    Maximum-Flux-Residual          L2-NORM 
          0                 1           2             4    7     1       0.1723311087E-01       4    7    1         0.9062588046E+00      0.2056472248E+01
          0                 2           2             4    7     1      -0.1676318220E-02       4    7    1        -0.9062631602E-01      0.2056465312E+00
          0                 3           1             4    7     1       0.1141509952E-03       4    7    1         0.6343840744E-02      0.1439516240E-01
          0                 4           1             4    7     1      -0.4542176995E-05       4    7    1        -0.2594634625E-03      0.5887530096E-03

    ------------------------------------------------
       NWT REQUIRED            4 OUTER ITERATIONS 
       AND A TOTAL OF          6 INNER ITERATIONS.
    ------------------------------------------------

 NO OUTPUT CONTROL FOR STRESS PERIOD   26   TIME STEP    3
 
 SOLVING FOR HEAD 
                                                   Max.-Head-Change                         Max.-Flux-Residual
  Residual-Control   Outer-Iter.   Inner-Iter.     Column Row Layer    Maximum-Head-Change  Column Row Layer    Maximum-Flux-Residual          L2-NORM 
          0                 1           2             4    7     1       0.1702794382E-01       4    7    1         0.8954166226E+00      0.2036139912E+01
          0                 2           2             4    7     1      -0.1656360900E-02       4    7    1        -0.8954208698E-01      0.2036135071E+00
          0                 3           1             4    7     1       0.1127919773E-03       4    7    1         0.6267944775E-02      0.1425284617E-01
          0                 4           1             4    7     1      -0.4488100755E-05       4    7    1        -0.2563593162E-03      0.5829299740E-03

    ------------------------------------------------
       NWT REQUIRED            4 OUTER ITERATIONS 
       AND A TOTAL OF          6 INNER ITERATIONS.
    ------------------------------------------------

 NO OUTPUT CONTROL FOR STRESS PERIOD   26   TIME STEP    4
 
 SOLVING FOR HEAD 
                                                   Max.-Head-Change                         Max.-Flux-Residual
  Residual-Control   Outer-Iter.   Inner-Iter.     Column Row Layer    Maximum-Head-Change  Column Row Layer    Maximum-Flux-Residual          L2-NORM 
          0                 1           2             4    7     1       0.1682621289E-01       4    7    1         0.8847568433E+00      0.2016112714E+01
          0                 2           2             4    7     1      -0.1636737825E-02       4    7    1        -0.8847609851E-01      0.2016110084E+00
          0                 3           1             4    7     1       0.1114557200E-03       4    7    1         0.6193325643E-02      0.1411271282E-01
          0                 4           1             4    7     1      -0.4434929994E-05       4    7    1        -0.2533073903E-03      0.5772009078E-03

    ------------------------------------------------
       NWT REQUIRED            4 OUTER ITERATIONS 
       AND A TOTAL OF          6 INNER ITERATIONS.
    ------------------------------------------------

 NO OUTPUT CONTROL FOR STRESS PERIOD   26   TIME STEP    5
 
 SOLVING FOR HEAD 
                                                   Max.-Head-Change                         Max.-Flux-Residual
  Residual-Control   Outer-Iter.   Inner-Iter.     Column Row Layer    Maximum-Head-Change  Column Row Layer    Maximum-Flux-Residual          L2-NORM 
          0                 1           2             4    7     1       0.1662770648E-01       4    7    1         0.8742678581E+00      0.1996404380E+01
          0                 2           2             4    7     1      -0.1617428414E-02       4    7    1        -0.8742718975E-01      0.1996396628E+00
          0                 3           1             4    7     1       0.1101408223E-03       4    7    1         0.6119902108E-02      0.1397472355E-01
          0                 4           1             4    7     1      -0.4382608644E-05       4    7    1        -0.2503043656E-03      0.5715652216E-03

    ------------------------------------------------
       NWT REQUIRED            4 OUTER ITERATIONS 
       AND A TOTAL OF          6 INNER ITERATIONS.
    ------------------------------------------------

 NO OUTPUT CONTROL FOR STRESS PERIOD   26   TIME STEP    6
 
 SOLVING FOR HEAD 
                                                   Max.-Head-Change                         Max.-Flux-Residual
  Residual-Control   Outer-Iter.   Inner-Iter.     Column Row Layer    Maximum-Head-Change  Column Row Layer    Maximum-Flux-Residual          L2-NORM 
          0                 1           2             4    7     1       0.1643262341E-01       4    7    1         0.8639607865E+00      0.1977000174E+01
          0                 2           2             4    7     1      -0.1598452003E-02       4    7    1        -0.8639647264E-01      0.1977000192E+00
          0                 3           1             4    7     1       0.1088486005E-03       4    7    1         0.6047751972E-02      0.1383898178E-01
          0                 4           1             4    7     1      -0.4331189895E-05       4    7    1        -0.2473534109E-03      0.5660363814E-03

    ------------------------------------------------
       NWT REQUIRED            4 OUTER ITERATIONS 
       AND A TOTAL OF          6 INNER ITERATIONS.
    ------------------------------------------------

 NO OUTPUT CONTROL FOR STRESS PERIOD   26   TIME STEP    7
 
 SOLVING FOR HEAD 
                                                   Max.-Head-Change                         Max.-Flux-Residual
  Residual-Control   Outer-Iter.   Inner-Iter.     Column Row Layer    Maximum-Head-Change  Column Row Layer    Maximum-Flux-Residual          L2-NORM 
          0                 1           2             4    7     1       0.1624075053E-01       4    7    1         0.8538238464E+00      0.1957888288E+01
          0                 2           2             4    7     1      -0.1579787861E-02       4    7    1        -0.8538276895E-01      0.1957888855E+00
          0                 3           1             4    7     1       0.1075776430E-03       4    7    1         0.5976792776E-02      0.1370520680E-01
          0                 4           1             4    7     1      -0.4280616873E-05       4    7    1        -0.2444511774E-03      0.5605774003E-03

    ------------------------------------------------
       NWT REQUIRED            4 OUTER ITERATIONS 
       AND A TOTAL OF          6 INNER ITERATIONS.
    ------------------------------------------------

 NO OUTPUT CONTROL FOR STRESS PERIOD   26   TIME STEP    8
 
 SOLVING FOR HEAD 
                                                   Max.-Head-Change                         Max.-Flux-Residual
  Residual-Control   Outer-Iter.   Inner-Iter.     Column Row Layer    Maximum-Head-Change  Column Row Layer    Maximum-Flux-Residual          L2-NORM 
          0                 1           2             4    7     1       0.1605201496E-01       4    7    1         0.8438533505E+00      0.1939063991E+01
          0                 2           2             4    7     1      -0.1561428897E-02       4    7    1        -0.8438570997E-01      0.1939065561E+00
          0                 3           1             4    7     1       0.1063274670E-03       4    7    1         0.5906998708E-02      0.1357346571E-01
          0                 4           1             4    7     1      -0.4230871503E-05       4    7    1        -0.2415965910E-03      0.5551578055E-03

    ------------------------------------------------
       NWT REQUIRED            4 OUTER ITERATIONS 
       AND A TOTAL OF          6 INNER ITERATIONS.
    ------------------------------------------------

 NO OUTPUT CONTROL FOR STRESS PERIOD   26   TIME STEP    9
 
 SOLVING FOR HEAD 
                                                   Max.-Head-Change                         Max.-Flux-Residual
  Residual-Control   Outer-Iter.   Inner-Iter.     Column Row Layer    Maximum-Head-Change  Column Row Layer    Maximum-Flux-Residual          L2-NORM 
          0                 1           2             4    7     1       0.1586634856E-01       4    7    1         0.8340455187E+00      0.1920528548E+01
          0                 2           2             4    7     1      -0.1543368484E-02       4    7    1        -0.8340491763E-01      0.1920530504E+00
          0                 3           1             4    7     1       0.1050976212E-03       4    7    1         0.5838343289E-02      0.1344370420E-01
          0                 4           1             4    7     1      -0.4181935020E-05       4    7    1        -0.2387885984E-03      0.5498499508E-03

    ------------------------------------------------
       NWT REQUIRED            4 OUTER ITERATIONS 
       AND A TOTAL OF          6 INNER ITERATIONS.
    ------------------------------------------------

 NO OUTPUT CONTROL FOR STRESS PERIOD   26   TIME STEP   10
 
 SOLVING FOR HEAD 
                                                   Max.-Head-Change                         Max.-Flux-Residual
  Residual-Control   Outer-Iter.   Inner-Iter.     Column Row Layer    Maximum-Head-Change  Column Row Layer    Maximum-Flux-Residual          L2-NORM 
          0                 1           2             4    7     1       0.1568368294E-01       4    7    1         0.8243968193E+00      0.1902265993E+01
          0                 2           2             4    7     1      -0.1525599969E-02       4    7    1        -0.8244003880E-01      0.1902268083E+00
          0                 3           1             4    7     1       0.1038876523E-03       4    7    1         0.5770801829E-02      0.1331601244E-01
          0                 4           1             4    7     1      -0.4133789118E-05       4    7    1        -0.2360261360E-03      0.5691419473E-03

    ------------------------------------------------
       NWT REQUIRED            4 OUTER ITERATIONS 
       AND A TOTAL OF          6 INNER ITERATIONS.
    ------------------------------------------------

 NO OUTPUT CONTROL FOR STRESS PERIOD   26   TIME STEP   11
 
 SOLVING FOR HEAD 
                                                   Max.-Head-Change                         Max.-Flux-Residual
  Residual-Control   Outer-Iter.   Inner-Iter.     Column Row Layer    Maximum-Head-Change  Column Row Layer    Maximum-Flux-Residual          L2-NORM 
          0                 1           2             4    7     1       0.1550408784E-01       4    7    1         0.8149110706E+00      0.1884275084E+01
          0                 2           2             4    7     1      -0.1508130135E-02       4    7    1        -0.8149145531E-01      0.1884276025E+00
          0                 3           1             4    7     1       0.1026980227E-03       4    7    1         0.5704401039E-02      0.1318993093E-01
          0                 4           1             4    7     1      -0.4086452793E-05       4    7    1        -0.2333103453E-03      0.5394717153E-03

    ------------------------------------------------
       NWT REQUIRED            4 OUTER ITERATIONS 
       AND A TOTAL OF          6 INNER ITERATIONS.
    ------------------------------------------------

 NO OUTPUT CONTROL FOR STRESS PERIOD   26   TIME STEP   12
 
 SOLVING FOR HEAD 
                                                   Max.-Head-Change                         Max.-Flux-Residual
  Residual-Control   Outer-Iter.   Inner-Iter.     Column Row Layer    Maximum-Head-Change  Column Row Layer    Maximum-Flux-Residual          L2-NORM 
          0                 1           2             4    7     1       0.1532735804E-01       4    7    1         0.8055771591E+00      0.1866542350E+01
          0                 2           2             4    7     1      -0.1490939020E-02       4    7    1        -0.8055805576E-01      0.1866544590E+00
          0                 3           1             4    7     1       0.1015273726E-03       4    7    1         0.5639063125E-02      0.1306581206E-01
          0                 4           1             4    7     1      -0.4039871015E-05       4    7    1        -0.2306380015E-03      0.5343906594E-03

    ------------------------------------------------
       NWT REQUIRED            4 OUTER ITERATIONS 
       AND A TOTAL OF          6 INNER ITERATIONS.
    ------------------------------------------------

 NO OUTPUT CONTROL FOR STRESS PERIOD   26   TIME STEP   13
 
 SOLVING FOR HEAD 
                                                   Max.-Head-Change                         Max.-Flux-Residual
  Residual-Control   Outer-Iter.   Inner-Iter.     Column Row Layer    Maximum-Head-Change  Column Row Layer    Maximum-Flux-Residual          L2-NORM 
          0                 1           2             4    7     1       0.1515342695E-01       4    7    1         0.7963918094E+00      0.1849071276E+01
          0                 2           2             4    7     1      -0.1474020146E-02       4    7    1        -0.7963951260E-01      0.1849073497E+00
          0                 3           1             4    7     1       0.1003752614E-03       4    7    1         0.5574765149E-02      0.1294352416E-01
          0                 4           1             4    7     1      -0.3994027550E-05       4    7    1        -0.2280082299E-03      0.5293964129E-03

    ------------------------------------------------
       NWT REQUIRED            4 OUTER ITERATIONS 
       AND A TOTAL OF          6 INNER ITERATIONS.
    ------------------------------------------------

 NO OUTPUT CONTROL FOR STRESS PERIOD   26   TIME STEP   14
 
 SOLVING FOR HEAD 
                                                   Max.-Head-Change                         Max.-Flux-Residual
  Residual-Control   Outer-Iter.   Inner-Iter.     Column Row Layer    Maximum-Head-Change  Column Row Layer    Maximum-Flux-Residual          L2-NORM 
          0                 1           2             4    7     1       0.1498237769E-01       4    7    1         0.7873589340E+00      0.1831860716E+01
          0                 2           2             4    7     1      -0.1457381600E-02       4    7    1        -0.7873621712E-01      0.1831862928E+00
          0                 3           1             4    7     1       0.9924223912E-04       4    7    1         0.5511534512E-02      0.1282306520E-01

    ------------------------------------------------
       NWT REQUIRED            3 OUTER ITERATIONS 
       AND A TOTAL OF          5 INNER ITERATIONS.
    ------------------------------------------------

 NO OUTPUT CONTROL FOR STRESS PERIOD   26   TIME STEP   15
 
 SOLVING FOR HEAD 
                                                   Max.-Head-Change                         Max.-Flux-Residual
  Residual-Control   Outer-Iter.   Inner-Iter.     Column Row Layer    Maximum-Head-Change  Column Row Layer    Maximum-Flux-Residual          L2-NORM 
          0                 1           2             4    7     1       0.1481394684E-01       4    7    1         0.7784650578E+00      0.1814892981E+01
          0                 2           2             4    7     1      -0.1440997757E-02       4    7    1        -0.7784682176E-01      0.1814894744E+00
          0                 3           1             4    7     1       0.9812656132E-04       4    7    1         0.5449276886E-02      0.1270426384E-01

    ------------------------------------------------
       NWT REQUIRED            3 OUTER ITERATIONS 
       AND A TOTAL OF          5 INNER ITERATIONS.
    ------------------------------------------------

 NO OUTPUT CONTROL FOR STRESS PERIOD   26   TIME STEP   16
 
 SOLVING FOR HEAD 
                                                   Max.-Head-Change                         Max.-Flux-Residual
  Residual-Control   Outer-Iter.   Inner-Iter.     Column Row Layer    Maximum-Head-Change  Column Row Layer    Maximum-Flux-Residual          L2-NORM 
          0                 1           2             4    7     1       0.1464827128E-01       4    7    1         0.7697174091E+00      0.1798165026E+01
          0                 2           2             4    7     1      -0.1424881932E-02       4    7    1        -0.7697204938E-01      0.1798166541E+00
          0                 3           1             4    7     1       0.9702913434E-04       4    7    1         0.5388042860E-02      0.1258716386E-01

    ------------------------------------------------
       NWT REQUIRED            3 OUTER ITERATIONS 
       AND A TOTAL OF          5 INNER ITERATIONS.
    ------------------------------------------------

 NO OUTPUT CONTROL FOR STRESS PERIOD   26   TIME STEP   17
 
 SOLVING FOR HEAD 
                                                   Max.-Head-Change                         Max.-Flux-Residual
  Residual-Control   Outer-Iter.   Inner-Iter.     Column Row Layer    Maximum-Head-Change  Column Row Layer    Maximum-Flux-Residual          L2-NORM 
          0                 1           2             4    7     1       0.1448515663E-01       4    7    1         0.7611052514E+00      0.1781681299E+01
          0                 2           2             4    7     1      -0.1409015216E-02       4    7    1        -0.7611082629E-01      0.1781682477E+00
          0                 3           1             4    7     1       0.9594867056E-04       4    7    1         0.5327757283E-02      0.1247177660E-01

    ------------------------------------------------
       NWT REQUIRED            3 OUTER ITERATIONS 
       AND A TOTAL OF          5 INNER ITERATIONS.
    ------------------------------------------------

 NO OUTPUT CONTROL FOR STRESS PERIOD   26   TIME STEP   18
 
 SOLVING FOR HEAD 
                                                   Max.-Head-Change                         Max.-Flux-Residual
  Residual-Control   Outer-Iter.   Inner-Iter.     Column Row Layer    Maximum-Head-Change  Column Row Layer    Maximum-Flux-Residual          L2-NORM 
          0                 1           2             4    7     1       0.1432468358E-01       4    7    1         0.7526332385E+00      0.1765423839E+01
          0                 2           2             4    7     1      -0.1393405458E-02       4    7    1        -0.7526361787E-01      0.1765424872E+00
          0                 3           1             4    7     1       0.9488570522E-04       4    7    1         0.5268452740E-02      0.1235797366E-01

    ------------------------------------------------
       NWT REQUIRED            3 OUTER ITERATIONS 
       AND A TOTAL OF          5 INNER ITERATIONS.
    ------------------------------------------------

 NO OUTPUT CONTROL FOR STRESS PERIOD   26   TIME STEP   19
 
 SOLVING FOR HEAD 
                                                   Max.-Head-Change                         Max.-Flux-Residual
  Residual-Control   Outer-Iter.   Inner-Iter.     Column Row Layer    Maximum-Head-Change  Column Row Layer    Maximum-Flux-Residual          L2-NORM 
          0                 1           2             4    7     1       0.1416665505E-01       4    7    1         0.7442908215E+00      0.1749400911E+01
          0                 2           2             4    7     1      -0.1378033489E-02       4    7    1        -0.7442936926E-01      0.1749401473E+00
          0                 3           1             4    7     1       0.9383893247E-04       4    7    1         0.5210055377E-02      0.1224579596E-01

    ------------------------------------------------
       NWT REQUIRED            3 OUTER ITERATIONS 
       AND A TOTAL OF          5 INNER ITERATIONS.
    ------------------------------------------------

 NO OUTPUT CONTROL FOR STRESS PERIOD   26   TIME STEP   20
 
 SOLVING FOR HEAD 
                                                   Max.-Head-Change                         Max.-Flux-Residual
  Residual-Control   Outer-Iter.   Inner-Iter.     Column Row Layer    Maximum-Head-Change  Column Row Layer    Maximum-Flux-Residual          L2-NORM 
          0                 1           2             4    7     1       0.1401115701E-01       4    7    1         0.7360825152E+00      0.1733598353E+01
          0                 2           2             4    7     1      -0.1362907670E-02       4    7    1        -0.7360853188E-01      0.1733598636E+00
          0                 3           1             4    7     1       0.9280892092E-04       4    7    1         0.5152596799E-02      0.1213517456E-01

    ------------------------------------------------
       NWT REQUIRED            3 OUTER ITERATIONS 
       AND A TOTAL OF          5 INNER ITERATIONS.
    ------------------------------------------------

 NO OUTPUT CONTROL FOR STRESS PERIOD   26   TIME STEP   21
 
 SOLVING FOR HEAD 
                                                   Max.-Head-Change                         Max.-Flux-Residual
  Residual-Control   Outer-Iter.   Inner-Iter.     Column Row Layer    Maximum-Head-Change  Column Row Layer    Maximum-Flux-Residual          L2-NORM 
          0                 1           2             4    7     1       0.1385813232E-01       4    7    1         0.7280054107E+00      0.1718019875E+01
          0                 2           2             4    7     1      -0.1348022443E-02       4    7    1        -0.7280081488E-01      0.1718019768E+00
          0                 3           1             4    7     1       0.9179529320E-04       4    7    1         0.5096056651E-02      0.1202611887E-01

    ------------------------------------------------
       NWT REQUIRED            3 OUTER ITERATIONS 
       AND A TOTAL OF          5 INNER ITERATIONS.
    ------------------------------------------------

 NO OUTPUT CONTROL FOR STRESS PERIOD   26   TIME STEP   22
 
 SOLVING FOR HEAD 
                                                   Max.-Head-Change                         Max.-Flux-Residual
  Residual-Control   Outer-Iter.   Inner-Iter.     Column Row Layer    Maximum-Head-Change  Column Row Layer    Maximum-Flux-Residual          L2-NORM 
          0                 1           2             4    7     1       0.1370739517E-01       4    7    1         0.7200491777E+00      0.1702664879E+01
          0                 2           2             4    7     1      -0.1333359733E-02       4    7    1        -0.7200518516E-01      0.1702664474E+00
          0                 3           1             4    7     1       0.9079681778E-04       4    7    1         0.5040362594E-02      0.1191862834E-01

    ------------------------------------------------
       NWT REQUIRED            3 OUTER ITERATIONS 
       AND A TOTAL OF          5 INNER ITERATIONS.
    ------------------------------------------------

 NO OUTPUT CONTROL FOR STRESS PERIOD   26   TIME STEP   23
 
 SOLVING FOR HEAD 
                                                   Max.-Head-Change                         Max.-Flux-Residual
  Residual-Control   Outer-Iter.   Inner-Iter.     Column Row Layer    Maximum-Head-Change  Column Row Layer    Maximum-Flux-Residual          L2-NORM 
          0                 1           2             4    7     1       0.1355916540E-01       4    7    1         0.7122262846E+00      0.1687516101E+01
          0                 2           2             4    7     1      -0.1318940928E-02       4    7    1        -0.7122288968E-01      0.1687515271E+00
          0                 3           1             4    7     1       0.8981495150E-04       4    7    1         0.4985601960E-02      0.1181272418E-01

    ------------------------------------------------
       NWT REQUIRED            3 OUTER ITERATIONS 
       AND A TOTAL OF          5 INNER ITERATIONS.
    ------------------------------------------------

 NO OUTPUT CONTROL FOR STRESS PERIOD   26   TIME STEP   24
 
 SOLVING FOR HEAD 
                                                   Max.-Head-Change                         Max.-Flux-Residual
  Residual-Control   Outer-Iter.   Inner-Iter.     Column Row Layer    Maximum-Head-Change  Column Row Layer    Maximum-Flux-Residual          L2-NORM 
          0                 1           2             4    7     1       0.1341311545E-01       4    7    1         0.7045186601E+00      0.1672582829E+01
          0                 2           2             4    7     1      -0.1304734161E-02       4    7    1        -0.7045212117E-01      0.1672581712E+00
          0                 3           1             4    7     1       0.8884752406E-04       4    7    1         0.4931648197E-02      0.1170804278E-01

    ------------------------------------------------
       NWT REQUIRED            3 OUTER ITERATIONS 
       AND A TOTAL OF          5 INNER ITERATIONS.
    ------------------------------------------------

 NO OUTPUT CONTROL FOR STRESS PERIOD   26   TIME STEP   25
 
 SOLVING FOR HEAD 
                                                   Max.-Head-Change                         Max.-Flux-Residual
  Residual-Control   Outer-Iter.   Inner-Iter.     Column Row Layer    Maximum-Head-Change  Column Row Layer    Maximum-Flux-Residual          L2-NORM 
          0                 1           2             4    7     1       0.1326920127E-01       4    7    1         0.6969240553E+00      0.1657843020E+01
          0                 2           2             4    7     1      -0.1290765826E-02       4    7    1        -0.6969265478E-01      0.1658262000E+00
          0                 3           1             4    7     1       0.8789633311E-04       4    7    1         0.4878485583E-02      0.1160780587E-01

    ------------------------------------------------
       NWT REQUIRED            3 OUTER ITERATIONS 
       AND A TOTAL OF          5 INNER ITERATIONS.
    ------------------------------------------------

 NO OUTPUT CONTROL FOR STRESS PERIOD   26   TIME STEP   26
 
 SOLVING FOR HEAD 
                                                   Max.-Head-Change                         Max.-Flux-Residual
  Residual-Control   Outer-Iter.   Inner-Iter.     Column Row Layer    Maximum-Head-Change  Column Row Layer    Maximum-Flux-Residual          L2-NORM 
          0                 1           2             4    7     1       0.1312753730E-01       4    7    1         0.6894532919E+00      0.1643280725E+01
          0                 2           2             4    7     1      -0.1276955030E-02       4    7    1        -0.6894557287E-01      0.1643278798E+00
          0                 3           1             4    7     1       0.8695586998E-04       4    7    1         0.4826189879E-02      0.1150292151E-01

    ------------------------------------------------
       NWT REQUIRED            3 OUTER ITERATIONS 
       AND A TOTAL OF          5 INNER ITERATIONS.
    ------------------------------------------------

 NO OUTPUT CONTROL FOR STRESS PERIOD   26   TIME STEP   27
 
 SOLVING FOR HEAD 
                                                   Max.-Head-Change                         Max.-Flux-Residual
  Residual-Control   Outer-Iter.   Inner-Iter.     Column Row Layer    Maximum-Head-Change  Column Row Layer    Maximum-Flux-Residual          L2-NORM 
          0                 1           2             4    7     1       0.1298803240E-01       4    7    1         0.6820950893E+00      0.1628887582E+01
          0                 2           2             4    7     1      -0.1263384926E-02       4    7    1        -0.6820974713E-01      0.1628885509E+00
          0                 3           1             4    7     1       0.8603179705E-04       4    7    1         0.4774682114E-02      0.1140217557E-01

    ------------------------------------------------
       NWT REQUIRED            3 OUTER ITERATIONS 
       AND A TOTAL OF          5 INNER ITERATIONS.
    ------------------------------------------------

 NO OUTPUT CONTROL FOR STRESS PERIOD   26   TIME STEP   28
 
 SOLVING FOR HEAD 
                                                   Max.-Head-Change                         Max.-Flux-Residual
  Residual-Control   Outer-Iter.   Inner-Iter.     Column Row Layer    Maximum-Head-Change  Column Row Layer    Maximum-Flux-Residual          L2-NORM 
          0                 1           2             4    7     1       0.1285048158E-01       4    7    1         0.6748398326E+00      0.1614691318E+01
          0                 2           2             4    7     1      -0.1250004902E-02       4    7    1        -0.6748421607E-01      0.1614688980E+00
          0                 3           1             4    7     1       0.8512066768E-04       4    7    1         0.4723894963E-02      0.1130278546E-01

    ------------------------------------------------
       NWT REQUIRED            3 OUTER ITERATIONS 
       AND A TOTAL OF          5 INNER ITERATIONS.
    ------------------------------------------------

 NO OUTPUT CONTROL FOR STRESS PERIOD   26   TIME STEP   29
 
 SOLVING FOR HEAD 
                                                   Max.-Head-Change                         Max.-Flux-Residual
  Residual-Control   Outer-Iter.   Inner-Iter.     Column Row Layer    Maximum-Head-Change  Column Row Layer    Maximum-Flux-Residual          L2-NORM 
          0                 1           2             4    7     1       0.1271511985E-01       4    7    1         0.6677006293E+00      0.1600685241E+01
          0                 2           2             4    7     1      -0.1236837820E-02       4    7    1        -0.6677029052E-01      0.1600682446E+00
          0                 3           1             4    7     1       0.8422403915E-04       4    7    1         0.4673920213E-02      0.1120474069E-01

    ------------------------------------------------
       NWT REQUIRED            3 OUTER ITERATIONS 
       AND A TOTAL OF          5 INNER ITERATIONS.
    ------------------------------------------------

 NO OUTPUT CONTROL FOR STRESS PERIOD   26   TIME STEP   30



 STREAM LISTING     PERIOD     26   STEP       30

 LAYER ROW COL. STREAM  RCH.  FLOW INTO     FLOW TO   FLOW OUT OF   OVRLND.     DIRECT     STREAM       STREAM     STREAM     STREAM   STREAMBED  STREAMBED
                SEG.NO.  NO.  STRM. RCH.    AQUIFER    STRM. RCH.    RUNOFF     PRECIP       ET          HEAD       DEPTH      WIDTH   CONDCTNC.   GRADIENT

   1    1    1     1     1    1.6500E+01  1.9759E-01   1.6303E+01  0.000E+00  0.000E+00  0.000E+00  1.09409E+03  1.039E+00  1.087E+01  4.893E-02  1.346E+00
   1    2    2     1     2    1.6303E+01  3.0466E-01   1.5998E+01  0.000E+00  0.000E+00  0.000E+00  1.08909E+03  1.034E+00  1.079E+01  7.552E-02  1.345E+00
   1    3    3     1     3    1.5998E+01  2.5853E-01   1.5739E+01  0.000E+00  0.000E+00  0.000E+00  1.08345E+03  1.029E+00  1.070E+01  6.417E-02  1.343E+00
   1    3    4     1     4    1.5739E+01  2.3700E-01   1.5502E+01  0.000E+00  0.000E+00  0.000E+00  1.07843E+03  1.024E+00  1.061E+01  5.890E-02  1.341E+00
   1    4    5     2     1    1.3502E+01  2.9865E-01   1.3204E+01  0.000E+00  0.000E+00  0.000E+00  1.07276E+03  8.289E-01  1.200E+01  7.800E-02  1.276E+00
   1    5    6     2     2    1.3204E+01  2.2914E-01   1.2975E+01  0.000E+00  0.000E+00  0.000E+00  1.06733E+03  8.190E-01  1.200E+01  6.000E-02  1.273E+00
   1    6    6     2     3    1.2975E+01  2.2862E-01   1.2746E+01  0.000E+00  0.000E+00  0.000E+00  1.06260E+03  8.104E-01  1.200E+01  6.000E-02  1.270E+00
   1    7    6     2     4    1.2746E+01  2.2810E-01   1.2518E+01  0.000E+00  0.000E+00  0.000E+00  1.05788E+03  8.017E-01  1.200E+01  6.000E-02  1.267E+00
   1    8    6     2     5    1.2518E+01  2.2758E-01   1.2290E+01  0.000E+00  0.000E+00  0.000E+00  1.05315E+03  7.930E-01  1.200E+01  6.000E-02  1.264E+00
   1    3    5     3     1    2.0000E+00  2.8252E-01   1.7175E+00  0.000E+00  0.000E+00  0.000E+00  1.07555E+03  1.909E+00  9.636E+00  7.227E-02  1.955E+00
   1    3    6     3     2    1.7175E+00  2.4905E-01   1.4684E+00  0.000E+00  0.000E+00  0.000E+00  1.07264E+03  1.727E+00  8.909E+00  6.682E-02  1.864E+00
   1    3    7     3     3    1.4684E+00  1.9718E-01   1.2712E+00  0.000E+00  0.000E+00  0.000E+00  1.06987E+03  1.555E+00  8.218E+00  5.547E-02  1.777E+00
   1    4    8     3     4    1.2712E+00  2.2567E-01   1.0456E+00  0.000E+00  0.000E+00  0.000E+00  1.06682E+03  1.364E+00  7.455E+00  6.709E-02  1.682E+00
   1    5    8     3     5    1.0456E+00  1.5790E-01   8.8768E-01  0.000E+00  0.000E+00  0.000E+00  1.06362E+03  1.164E+00  6.655E+00  4.991E-02  1.582E+00
   1    6    8     3     6    8.8768E-01  5.5980E-02   8.3170E-01  0.000E+00  0.000E+00  0.000E+00  1.06158E+03  1.036E+00  6.145E+00  1.844E-02  1.518E+00
   1    5   10     4     1    1.0000E+01  9.0919E-02   9.9091E+00  0.000E+00  0.000E+00  0.000E+00  1.07836E+03  6.368E-01  1.000E+01  2.500E-02  1.212E+00
   1    5    9     4     2    9.9091E+00  1.8158E-01   9.7275E+00  0.000E+00  0.000E+00  0.000E+00  1.07154E+03  6.315E-01  1.000E+01  5.000E-02  1.211E+00
   1    6    8     4     3    9.7275E+00  1.2689E-01   9.6006E+00  0.000E+00  0.000E+00  0.000E+00  1.06381E+03  6.256E-01  1.000E+01  3.500E-02  1.209E+00
   1    6    8     5     1    1.0432E+01  2.2686E-01   1.0205E+01  0.000E+00  0.000E+00  0.000E+00  1.05868E+03  6.790E-01  1.542E+01  6.166E-02  1.226E+00
   1    7    7     5     2    1.0205E+01  2.7894E-01   9.9265E+00  0.000E+00  0.000E+00  0.000E+00  1.05417E+03  6.732E-01  1.519E+01  7.594E-02  1.224E+00
   1    8    7     5     3    9.9265E+00  1.9221E-01   9.7343E+00  0.000E+00  0.000E+00  0.000E+00  1.04992E+03  6.676E-01  1.497E+01  5.241E-02  1.223E+00
   1    8    6     5     4    9.7343E+00  1.3577E-01   9.5985E+00  0.000E+00  0.000E+00  0.000E+00  1.04691E+03  6.637E-01  1.482E+01  3.706E-02  1.221E+00
   1    9    6     6     1    2.1889E+01  2.4742E-01   2.1641E+01  0.000E+00  0.000E+00  0.000E+00  1.04385E+03  1.124E+00  1.200E+01  6.000E-02  1.375E+00
   1   10    7     6     2    2.1641E+01  2.4696E-01   2.1395E+01  0.000E+00  0.000E+00  0.000E+00  1.03930E+03  1.116E+00  1.200E+01  6.000E-02  1.372E+00
   1   11    7     6     3    2.1395E+01  2.4650E-01   2.1148E+01  0.000E+00  0.000E+00  0.000E+00  1.03474E+03  1.108E+00  1.200E+01  6.000E-02  1.369E+00
   1   12    7     6     4    2.1148E+01  2.4603E-01   2.0902E+01  0.000E+00  0.000E+00  0.000E+00  1.03019E+03  1.101E+00  1.200E+01  6.000E-02  1.367E+00
   1   13    7     6     5    2.0902E+01 -1.4081E-02   2.0916E+01  0.000E+00  0.000E+00  0.000E+00  1.02701E+03  1.097E+00  1.200E+01  2.400E-01 -1.956E-02
   1   14    9     7     1    1.5000E+02  1.3375E+00   1.4866E+02  0.000E+00  0.000E+00  0.000E+00  1.03987E+03  2.288E+00  5.529E+01  5.593E-01  7.971E-01
   1   13    8     7     2    1.4866E+02  1.8343E+00   1.4683E+02  0.000E+00  0.000E+00  0.000E+00  1.03478E+03  2.279E+00  5.526E+01  6.148E-01  9.946E-01
   1   13    7     7     3    1.4683E+02  1.4660E+00   1.4536E+02  0.000E+00  0.000E+00  0.000E+00  1.02969E+03  2.270E+00  5.522E+01  5.585E-01  8.750E-01
   1   13    6     8     1    1.6628E+02  8.9999E-01   1.6538E+02  0.000E+00  0.000E+00  0.000E+00  1.02480E+03  2.925E+00  4.241E+01  4.322E-01  6.942E-01
   1   13    5     8     2    1.6538E+02  1.6135E-01   1.6522E+02  0.000E+00  0.000E+00  0.000E+00  1.01855E+03  2.921E+00  4.236E+01  4.317E-01  1.246E-01
   1   13    4     8     3    1.6522E+02 -2.4723E+00   1.6769E+02  0.000E+00  0.000E+00  0.000E+00  1.01230E+03  2.929E+00  4.247E+01  4.328E+00 -1.904E-01
   1   13    3     8     4    1.6769E+02 -3.6664E+00   1.7136E+02  0.000E+00  0.000E+00  0.000E+00  1.00607E+03  2.949E+00  4.276E+01  4.358E+00 -2.805E-01
   1   13    2     8     5    1.7136E+02 -2.5778E+00   1.7393E+02  0.000E+00  0.000E+00  0.000E+00  9.99844E+02  2.969E+00  4.306E+01  4.387E+00 -1.958E-01
   1   13    1     8     6    1.7393E+02 -1.9759E+00   1.7591E+02  0.000E+00  0.000E+00  0.000E+00  9.94859E+02  2.984E+00  4.327E+01  2.645E+00 -2.490E-01
   1    8    6     9     1    0.0000E+00  0.0000E+00   0.0000E+00  0.000E+00  0.000E+00  0.000E+00  1.07875E+03  0.000E+00  4.000E+00  0.000E+00  1.000E+00
   1    8    5     9     2    0.0000E+00  0.0000E+00   0.0000E+00  0.000E+00  0.000E+00  0.000E+00  1.07825E+03  0.000E+00  4.000E+00  0.000E+00  1.000E+00





UNSATURATED ZONE PACKAGE VOLUMETRIC BUDGET FOR  TIME STEP    30 STRESS PERIOD   26
  ------------------------------------------------------------------------------



     CUMULATIVE VOLUMES      L**3       RATES FOR THIS TIME STEP      L**3/T
     ------------------                 ------------------------

           IN:                                      IN:
           ---                                      ---
        INFILTRATION =   994957787.2612          INFILTRATION =           0.8475

          OUT:                                     OUT:
          ----                                     ----
              UZF ET =   862169819.6396                UZF ET =           0.7500
        UZF RECHARGE =       73224.0000          UZF RECHARGE =       0.0000E+00

            IN - OUT =   132714743.6216              IN - OUT =       9.7500E-02

          STORAGE:                                 STORAGE:
          --------                                 --------
      STORAGE CHANGE =   132716019.8306        STORAGE CHANGE =       9.7500E-02

 PERCENT DISCREPANCY IS DIFFERENCE BETWEEN IN-OUT MINUS CHANGE IN STORAGE
 DIVIDED BY THE AVERAGE OF IN AND OUT TIMES 100

 PERCENT DISCREPANCY =          -0.00     PERCENT DISCREPANCY =           0.00






1
  VOLUMETRIC BUDGET FOR AGRICULTURAL FIELDS AT  END OF TIME STEP   30, STRESS PERIOD  26
  ------------------------------------------------------------------------------

     CUMULATIVE VOLUMES      L**3       RATES FOR THIS TIME STEP      L**3/T
     ------------------                 ------------------------

           IN:                                      IN:
           ---                                      ---
               AG WELLS  =   328055200.0000                 AG WELLS  =           0.0000
      DIVERSION SEGMENTS =   611151808.0000        DIVERSION SEGMENTS =           0.0000
       IRRIGATION PONDS  =           0.0000         IRRIGATION PONDS  =           0.0000
           GW IRRIGATION =           0.0000             GW IRRIGATION =           0.0000
           SW IRRIGATION =           0.0000             SW IRRIGATION =           0.0000
        SYSTEM LOSSES GW =           0.0000          SYSTEM LOSSES GW =           0.0000
        SYSTEM LOSSES SW =           0.0000          SYSTEM LOSSES SW =           0.0000

                TOTAL IN =   939207040.0000                  TOTAL IN =           0.0000

          OUT:                                     OUT:
          ----                                     ----
               AG WELLS  =           0.0000                 AG WELLS  =           0.0000
      DIVERSION SEGMENTS =           0.0000        DIVERSION SEGMENTS =           0.0000
       IRRIGATION PONDS  =           0.0000         IRRIGATION PONDS  =           0.0000
           GW IRRIGATION =   328055200.0000             GW IRRIGATION =           0.0000
           SW IRRIGATION =   611163648.0000             SW IRRIGATION =           0.0000
        SYSTEM LOSSES GW =           0.0000          SYSTEM LOSSES GW =           0.0000
        SYSTEM LOSSES SW =           0.0000          SYSTEM LOSSES SW =           0.0000

               TOTAL OUT =   939218816.0000                 TOTAL OUT =           0.0000

                IN - OUT =      -11776.0000                  IN - OUT =           0.0000

     PERCENT DISCREPANCY =          -0.00         PERCENT DISCREPANCY =           0.00



1
  VOLUMETRIC BUDGET FOR ENTIRE MODEL AT END OF TIME STEP   30, STRESS PERIOD  26
  ------------------------------------------------------------------------------

     CUMULATIVE VOLUMES      L**3       RATES FOR THIS TIME STEP      L**3/T
     ------------------                 ------------------------

           IN:                                      IN:
           ---                                      ---
             STORAGE     =   554205952.0000               STORAGE     =           4.6990
       CONSTANT HEAD     =           0.0000         CONSTANT HEAD     =           0.0000
     HEAD DEP BOUNDS     =    18813930.0000       HEAD DEP BOUNDS     =           0.2859
      STREAM LEAKAGE     =   778635520.0000        STREAM LEAKAGE     =          11.2975
        UZF RECHARGE     =       73223.9531          UZF RECHARGE     =           0.0000
               GW ET     =           0.0000                 GW ET     =           0.0000
     SURFACE LEAKAGE     =           0.0000       SURFACE LEAKAGE     =           0.0000
           AG WELLS      =           0.0000             AG WELLS      =           0.0000

                TOTAL IN =  1351728640.0000                  TOTAL IN =          16.2824

          OUT:                                     OUT:
          ----                                     ----
             STORAGE     =   287086176.0000               STORAGE     =           5.2870
       CONSTANT HEAD     =           0.0000         CONSTANT HEAD     =           0.0000
     HEAD DEP BOUNDS     =    19126644.0000       HEAD DEP BOUNDS     =           0.2890
      STREAM LEAKAGE     =   715137536.0000        STREAM LEAKAGE     =          10.7065
        UZF RECHARGE     =           0.0000          UZF RECHARGE     =           0.0000
               GW ET     =     2326724.7500                 GW ET     =           0.0000
     SURFACE LEAKAGE     =           0.0000       SURFACE LEAKAGE     =           0.0000
           AG WELLS      =   328055200.0000             AG WELLS      =           0.0000

               TOTAL OUT =  1351732352.0000                 TOTAL OUT =          16.2825

                IN - OUT =       -3712.0000                  IN - OUT =      -1.6403E-04

     PERCENT DISCREPANCY =          -0.00         PERCENT DISCREPANCY =          -0.00






         TIME SUMMARY AT END OF TIME STEP   30 IN STRESS PERIOD   26
                    SECONDS     MINUTES      HOURS       DAYS        YEARS
                    -----------------------------------------------------------
   TIME STEP LENGTH  87667.      1461.1      24.352      1.0147     2.77799E-03
 STRESS PERIOD TIME 2.63000E+06  43833.      730.56      30.440     8.33397E-02
         TOTAL TIME 6.58368E+07 1.09728E+06  18288.      762.00      2.0862    
1
1
                            STRESS PERIOD NO.   27, LENGTH =   2630000.    
                            -----------------------------------------------

                              NUMBER OF TIME STEPS =    30

                               MULTIPLIER FOR DELT =     1.000

                            INITIAL TIME STEP SIZE =   87666.66    

 REUSING NON-PARAMETER GHB CELLS FROM LAST STRESS PERIOD

      2 GHB CELLS

 REUSING STREAM SEGMENT DATA FROM LAST STRESS PERIOD



            AREAL INFILTRATION RATE
 READING ON UNIT   19 WITH FORMAT: (FREE)              

            1           2           3           4           5           6           7           8           9          10
 ........................................................................................................................
   1   1.0000E-10  2.0000E-10   0.000       0.000       0.000       0.000       0.000       0.000       0.000       0.000    
   2   2.0000E-10  1.0000E-10  2.0000E-10   0.000       0.000      8.0000E-10  8.0000E-10  5.0000E-10   0.000       0.000    
   3    0.000      5.0000E-10  1.0000E-10  1.0000E-10  8.0000E-10  8.0000E-10  5.0000E-10  5.0000E-10   0.000       0.000    
   4   8.0000E-10  5.0000E-10  1.0000E-10  1.0000E-10  1.0000E-10  1.0000E-10  1.0000E-10  1.0000E-10  2.0000E-10   0.000    
   5   8.0000E-10  5.0000E-10  1.0000E-10  1.0000E-10  1.0000E-10  1.0000E-10  1.0000E-10  1.0000E-10  1.0000E-10  1.0000E-10
   6   8.0000E-10  5.0000E-10  5.0000E-10  2.0000E-10  2.0000E-10  1.0000E-10  1.0000E-10  1.0000E-10  1.0000E-10  5.0000E-10
   7   8.0000E-10  5.0000E-10  5.0000E-10  2.0000E-10  2.0000E-10  1.0000E-10  1.0000E-10  2.0000E-10  2.0000E-10   0.000    
   8    0.000      5.0000E-10  5.0000E-10  2.0000E-10  2.0000E-10  1.0000E-10  1.0000E-10  2.0000E-10  5.0000E-10   0.000    
   9    0.000      5.0000E-10  5.0000E-10  2.0000E-10  2.0000E-10  1.0000E-10  1.0000E-10  2.0000E-10  5.0000E-10   0.000    
  10    0.000      5.0000E-10  5.0000E-10  2.0000E-10  2.0000E-10  1.0000E-10  1.0000E-10  2.0000E-10  5.0000E-10  8.0000E-10
  11    0.000      1.0000E-10  1.0000E-10  1.0000E-10  1.0000E-10  1.0000E-10  1.0000E-10  2.0000E-10  5.0000E-10   0.000    
  12   1.0000E-10  1.0000E-10  1.0000E-10  1.0000E-10  1.0000E-10  1.0000E-10  1.0000E-10  1.0000E-10  2.0000E-10   0.000    
  13   1.0000E-10  1.0000E-10  2.0000E-10  2.0000E-10  2.0000E-10  2.0000E-10  2.0000E-10  1.0000E-10  1.0000E-10   0.000    
  14    0.000      2.0000E-10  5.0000E-10  5.0000E-10  5.0000E-10  5.0000E-10  5.0000E-10  2.0000E-10  1.0000E-10   0.000    
  15    0.000       0.000      8.0000E-10  8.0000E-10  8.0000E-10  8.0000E-10   0.000       0.000       0.000       0.000    

                  ET RATE =  5.000000E-10

 USING ET EXTINCTION DEPTH FROM PREVIOUS STRESS PERIOD. CURRENT PERIOD IS:      27

 USING EXTINCTION WATER CONTENT FROM PREVIOUS STRESS PERIOD. CURRENT PERIOD IS:      27

 USING AIR ENTRY PRESSURE FROM PREVIOUS STRESS PERIOD. CURRENT PERIOD IS:      27

 USING ROOT PRESSURE HEAD FROM PREVIOUS STRESS PERIOD. CURRENT PERIOD IS:      27

 USING ROOT ACTIVITY FROM PREVIOUS STRESS PERIOD. CURRENT PERIOD IS:      27

 PROCESSING AG STRESS PERIOD DATA

 READING AG STRESS PERIOD DATA

 READING IRRIGATION SEGMENT

 READING IRRIGATION WELL

 READING SUPPLEMENTAL WELL

 NO IRRPOND OR REUSING IRRPOND DATA FROM LAST STRESS PERIOD

 END PROCESSING AG STRESS PERIOD DATA OPTIONS
 
 SOLVING FOR HEAD 
                                                   Max.-Head-Change                         Max.-Flux-Residual
  Residual-Control   Outer-Iter.   Inner-Iter.     Column Row Layer    Maximum-Head-Change  Column Row Layer    Maximum-Flux-Residual          L2-NORM 
          0                 1           2             4    7     1       0.1258163132E-01       4    7    1         0.6606601890E+00      0.1586871285E+01
          0                 2           2             4    7     1      -0.1223852949E-02       4    7    1        -0.6606624137E-01      0.1586868262E+00
          0                 3           1             4    7     1       0.8333981811E-04       4    7    1         0.4624636782E-02      0.1110804761E-01

    ------------------------------------------------
       NWT REQUIRED            3 OUTER ITERATIONS 
       AND A TOTAL OF          5 INNER ITERATIONS.
    ------------------------------------------------

 NO OUTPUT CONTROL FOR STRESS PERIOD   27   TIME STEP    1
 
 SOLVING FOR HEAD 
                                                   Max.-Head-Change                         Max.-Flux-Residual
  Residual-Control   Outer-Iter.   Inner-Iter.     Column Row Layer    Maximum-Head-Change  Column Row Layer    Maximum-Flux-Residual          L2-NORM 
          0                 1           2             4    7     1       0.1245027629E-01       4    7    1         0.6537316090E+00      0.1571872699E+01
          0                 2           2             4    7     1      -0.1211075612E-02       4    7    1        -0.6537337838E-01      0.1571776705E+00
          0                 3           1             4    7     1       0.8246972977E-04       4    7    1         0.4576136405E-02      0.1100180597E-01

    ------------------------------------------------
       NWT REQUIRED            3 OUTER ITERATIONS 
       AND A TOTAL OF          5 INNER ITERATIONS.
    ------------------------------------------------

 NO OUTPUT CONTROL FOR STRESS PERIOD   27   TIME STEP    2
 
 SOLVING FOR HEAD 
                                                   Max.-Head-Change                         Max.-Flux-Residual
  Residual-Control   Outer-Iter.   Inner-Iter.     Column Row Layer    Maximum-Head-Change  Column Row Layer    Maximum-Flux-Residual          L2-NORM 
          0                 1           2             4    7     1       0.1232083658E-01       4    7    1         0.6468989094E+00      0.1651346225E+01
          0                 2           2             4    7     1      -0.1198484584E-02       4    7    1        -0.6469010346E-01      0.1646280646E+00
          0                 3           1             4    7     1       0.8161232759E-04       4    7    1         0.4528307182E-02      0.1147743368E-01

    ------------------------------------------------
       NWT REQUIRED            3 OUTER ITERATIONS 
       AND A TOTAL OF          5 INNER ITERATIONS.
    ------------------------------------------------

 NO OUTPUT CONTROL FOR STRESS PERIOD   27   TIME STEP    3
 
 SOLVING FOR HEAD 
                                                   Max.-Head-Change                         Max.-Flux-Residual
  Residual-Control   Outer-Iter.   Inner-Iter.     Column Row Layer    Maximum-Head-Change  Column Row Layer    Maximum-Flux-Residual          L2-NORM 
          0                 1           2             4    7     1       0.1219354833E-01       4    7    1         0.6401802565E+00      0.1624510166E+01
          0                 2           2             4    7     1      -0.1186102837E-02       4    7    1        -0.6401823333E-01      0.1620153719E+00
          0                 3           1             4    7     1       0.8076917752E-04       4    7    1         0.4481276303E-02      0.1130110986E-01

    ------------------------------------------------
       NWT REQUIRED            3 OUTER ITERATIONS 
       AND A TOTAL OF          5 INNER ITERATIONS.
    ------------------------------------------------

 NO OUTPUT CONTROL FOR STRESS PERIOD   27   TIME STEP    4
 
 SOLVING FOR HEAD 
                                                   Max.-Head-Change                         Max.-Flux-Residual
  Residual-Control   Outer-Iter.   Inner-Iter.     Column Row Layer    Maximum-Head-Change  Column Row Layer    Maximum-Flux-Residual          L2-NORM 
          0                 1           2             4    7     1       0.1206808835E-01       4    7    1         0.6335584142E+00      0.1599851038E+01
          0                 2           2             4    7     1      -0.1173898932E-02       4    7    1        -0.6335604439E-01      0.1596113824E+00
          0                 3           1             4    7     1       0.7993813767E-04       4    7    1         0.4434923109E-02      0.1113854782E-01

    ------------------------------------------------
       NWT REQUIRED            3 OUTER ITERATIONS 
       AND A TOTAL OF          5 INNER ITERATIONS.
    ------------------------------------------------

 NO OUTPUT CONTROL FOR STRESS PERIOD   27   TIME STEP    5
 
 SOLVING FOR HEAD 
                                                   Max.-Head-Change                         Max.-Flux-Residual
  Residual-Control   Outer-Iter.   Inner-Iter.     Column Row Layer    Maximum-Head-Change  Column Row Layer    Maximum-Flux-Residual          L2-NORM 
          0                 1           2             4    7     1       0.1194468734E-01       4    7    1         0.6270461041E+00      0.1577081111E+01
          0                 2           2             4    7     1      -0.1161895311E-02       4    7    1        -0.6270480879E-01      0.1573874895E+00
          0                 3           1             4    7     1       0.7912073587E-04       4    7    1         0.4389336621E-02      0.1098787278E-01

    ------------------------------------------------
       NWT REQUIRED            3 OUTER ITERATIONS 
       AND A TOTAL OF          5 INNER ITERATIONS.
    ------------------------------------------------

 NO OUTPUT CONTROL FOR STRESS PERIOD   27   TIME STEP    6
 
 SOLVING FOR HEAD 
                                                   Max.-Head-Change                         Max.-Flux-Residual
  Residual-Control   Outer-Iter.   Inner-Iter.     Column Row Layer    Maximum-Head-Change  Column Row Layer    Maximum-Flux-Residual          L2-NORM 
          0                 1           2             4    7     1       0.1182316230E-01       4    7    1         0.6206331784E+00      0.1555931536E+01
          0                 2           2             4    7     1      -0.1150074172E-02       4    7    1        -0.6206351176E-01      0.1553178852E+00
          0                 3           1             4    7     1       0.7831576109E-04       4    7    1         0.4344445874E-02      0.1084689777E-01

    ------------------------------------------------
       NWT REQUIRED            3 OUTER ITERATIONS 
       AND A TOTAL OF          5 INNER ITERATIONS.
    ------------------------------------------------

 NO OUTPUT CONTROL FOR STRESS PERIOD   27   TIME STEP    7
 
 SOLVING FOR HEAD 
                                                   Max.-Head-Change                         Max.-Flux-Residual
  Residual-Control   Outer-Iter.   Inner-Iter.     Column Row Layer    Maximum-Head-Change  Column Row Layer    Maximum-Flux-Residual          L2-NORM 
          0                 1           2             4    7     1       0.1170347089E-01       4    7    1         0.6143175185E+00      0.1536187107E+01
          0                 2           2             4    7     1      -0.1138431397E-02       4    7    1        -0.6143194144E-01      0.1533824181E+00
          0                 3           1             4    7     1       0.7752293190E-04       4    7    1         0.4300235970E-02      0.1071489135E-01

    ------------------------------------------------
       NWT REQUIRED            3 OUTER ITERATIONS 
       AND A TOTAL OF          5 INNER ITERATIONS.
    ------------------------------------------------

 NO OUTPUT CONTROL FOR STRESS PERIOD   27   TIME STEP    8
 
 SOLVING FOR HEAD 
                                                   Max.-Head-Change                         Max.-Flux-Residual
  Residual-Control   Outer-Iter.   Inner-Iter.     Column Row Layer    Maximum-Head-Change  Column Row Layer    Maximum-Flux-Residual          L2-NORM 
          0                 1           2             4    7     1       0.1158570946E-01       4    7    1         0.6081042998E+00      0.1517665796E+01
          0                 2           2             4    7     1      -0.1126976358E-02       4    7    1        -0.6081061534E-01      0.1515640379E+00
          0                 3           1             4    7     1       0.7674288709E-04       4    7    1         0.4256743171E-02      0.1059087380E-01

    ------------------------------------------------
       NWT REQUIRED            3 OUTER ITERATIONS 
       AND A TOTAL OF          5 INNER ITERATIONS.
    ------------------------------------------------

 NO OUTPUT CONTROL FOR STRESS PERIOD   27   TIME STEP    9
 
 SOLVING FOR HEAD 
                                                   Max.-Head-Change                         Max.-Flux-Residual
  Residual-Control   Outer-Iter.   Inner-Iter.     Column Row Layer    Maximum-Head-Change  Column Row Layer    Maximum-Flux-Residual          L2-NORM 
          0                 1           2             4    7     1       0.1146955984E-01       4    7    1         0.6019764061E+00      0.1500203598E+01
          0                 2           2             4    7     1      -0.1115678106E-02       4    7    1        -0.6019782184E-01      0.1498470902E+00
          0                 3           1             4    7     1       0.7597351849E-04       4    7    1         0.4213847636E-02      0.1047380569E-01

    ------------------------------------------------
       NWT REQUIRED            3 OUTER ITERATIONS 
       AND A TOTAL OF          5 INNER ITERATIONS.
    ------------------------------------------------

 NO OUTPUT CONTROL FOR STRESS PERIOD   27   TIME STEP   10
 
 SOLVING FOR HEAD 
                                                   Max.-Head-Change                         Max.-Flux-Residual
  Residual-Control   Outer-Iter.   Inner-Iter.     Column Row Layer    Maximum-Head-Change  Column Row Layer    Maximum-Flux-Residual          L2-NORM 
          0                 1           2             4    7     1       0.1135526484E-01       4    7    1         0.5959468239E+00      0.1483668311E+01
          0                 2           2             4    7     1      -0.1104560259E-02       4    7    1        -0.5959485962E-01      0.1482178262E+00
          0                 3           1             4    7     1       0.7521643478E-04       4    7    1         0.4171640297E-02      0.1036155631E-01

    ------------------------------------------------
       NWT REQUIRED            3 OUTER ITERATIONS 
       AND A TOTAL OF          5 INNER ITERATIONS.
    ------------------------------------------------

 NO OUTPUT CONTROL FOR STRESS PERIOD   27   TIME STEP   11
 
 SOLVING FOR HEAD 
                                                   Max.-Head-Change                         Max.-Flux-Residual
  Residual-Control   Outer-Iter.   Inner-Iter.     Column Row Layer    Maximum-Head-Change  Column Row Layer    Maximum-Flux-Residual          L2-NORM 
          0                 1           2             4    7     1       0.1124264429E-01       4    7    1         0.5900060294E+00      0.1467937270E+01
          0                 2           2             4    7     1      -0.1093605293E-02       4    7    1        -0.5900077627E-01      0.1466643871E+00
          0                 3           1             4    7     1       0.7447044287E-04       4    7    1         0.4130054477E-02      0.1025309311E-01

    ------------------------------------------------
       NWT REQUIRED            3 OUTER ITERATIONS 
       AND A TOTAL OF          5 INNER ITERATIONS.
    ------------------------------------------------

 NO OUTPUT CONTROL FOR STRESS PERIOD   27   TIME STEP   12
 
 SOLVING FOR HEAD 
                                                   Max.-Head-Change                         Max.-Flux-Residual
  Residual-Control   Outer-Iter.   Inner-Iter.     Column Row Layer    Maximum-Head-Change  Column Row Layer    Maximum-Flux-Residual          L2-NORM 
          0                 1           2             4    7     1       0.1113179750E-01       4    7    1         0.5841594241E+00      0.1452923146E+01
          0                 2           2             4    7     1      -0.1083114750E-02       4    7    1        -0.5844689822E-01      0.1451915095E+00
          0                 3           1             4    7     1       0.7375607407E-04       4    7    1         0.4091282889E-02      0.1015329884E-01

    ------------------------------------------------
       NWT REQUIRED            3 OUTER ITERATIONS 
       AND A TOTAL OF          5 INNER ITERATIONS.
    ------------------------------------------------

 NO OUTPUT CONTROL FOR STRESS PERIOD   27   TIME STEP   13
 
 SOLVING FOR HEAD 
                                                   Max.-Head-Change                         Max.-Flux-Residual
  Residual-Control   Outer-Iter.   Inner-Iter.     Column Row Layer    Maximum-Head-Change  Column Row Layer    Maximum-Flux-Residual          L2-NORM 
          0                 1           2             4    7     1       0.1101973109E-01       4    7    1         0.5783818118E+00      0.1438524869E+01
          0                 2           2             4    7     1      -0.1071922004E-02       4    7    1        -0.5783836085E-01      0.1437584015E+00
          0                 3           1             4    7     1       0.7299389063E-04       4    7    1         0.4048685323E-02      0.1005444364E-01

    ------------------------------------------------
       NWT REQUIRED            3 OUTER ITERATIONS 
       AND A TOTAL OF          5 INNER ITERATIONS.
    ------------------------------------------------

 NO OUTPUT CONTROL FOR STRESS PERIOD   27   TIME STEP   14
 
 SOLVING FOR HEAD 
                                                   Max.-Head-Change                         Max.-Flux-Residual
  Residual-Control   Outer-Iter.   Inner-Iter.     Column Row Layer    Maximum-Head-Change  Column Row Layer    Maximum-Flux-Residual          L2-NORM 
          0                 1           2             4    7     1       0.1090973218E-01       4    7    1         0.5725721177E+00      0.1424656789E+01
          0                 2           2             4    7     1      -0.1061222044E-02       4    7    1        -0.5725738704E-01      0.1423847931E+00
          0                 3           1             4    7     1       0.7226526333E-04       4    7    1         0.4008017158E-02      0.9959367613E-02

    ------------------------------------------------
       NWT REQUIRED            3 OUTER ITERATIONS 
       AND A TOTAL OF          5 INNER ITERATIONS.
    ------------------------------------------------

 NO OUTPUT CONTROL FOR STRESS PERIOD   27   TIME STEP   15
 
 SOLVING FOR HEAD 
                                                   Max.-Head-Change                         Max.-Flux-Residual
  Residual-Control   Outer-Iter.   Inner-Iter.     Column Row Layer    Maximum-Head-Change  Column Row Layer    Maximum-Flux-Residual          L2-NORM 
          0                 1           2             4    7     1       0.1080145167E-01       4    7    1         0.5668540700E+00      0.1411272780E+01
          0                 2           2             4    7     1      -0.1050689240E-02       4    7    1        -0.5668557798E-01      0.1410581245E+00
          0                 3           1             4    7     1       0.7154801906E-04       4    7    1         0.3967990552E-02      0.9867666586E-02

    ------------------------------------------------
       NWT REQUIRED            3 OUTER ITERATIONS 
       AND A TOTAL OF          5 INNER ITERATIONS.
    ------------------------------------------------

 NO OUTPUT CONTROL FOR STRESS PERIOD   27   TIME STEP   16
 
 SOLVING FOR HEAD 
                                                   Max.-Head-Change                         Max.-Flux-Residual
  Residual-Control   Outer-Iter.   Inner-Iter.     Column Row Layer    Maximum-Head-Change  Column Row Layer    Maximum-Flux-Residual          L2-NORM 
          0                 1           2             4    7     1       0.1069498246E-01       4    7    1         0.5612324904E+00      0.1398344737E+01
          0                 2           2             4    7     1      -0.1040332628E-02       4    7    1        -0.5612341587E-01      0.1397752340E+00
          0                 3           1             4    7     1       0.7084277283E-04       4    7    1         0.3928639228E-02      0.9778991855E-02

    ------------------------------------------------
       NWT REQUIRED            3 OUTER ITERATIONS 
       AND A TOTAL OF          5 INNER ITERATIONS.
    ------------------------------------------------

 NO OUTPUT CONTROL FOR STRESS PERIOD   27   TIME STEP   17
 
 SOLVING FOR HEAD 
                                                   Max.-Head-Change                         Max.-Flux-Residual
  Residual-Control   Outer-Iter.   Inner-Iter.     Column Row Layer    Maximum-Head-Change  Column Row Layer    Maximum-Flux-Residual          L2-NORM 
          0                 1           2             4    7     1       0.1059027309E-01       4    7    1         0.5557048242E+00      0.1385810747E+01
          0                 2           2             4    7     1      -0.1030147203E-02       4    7    1        -0.5557064524E-01      0.1385301640E+00
          0                 3           1             4    7     1       0.7014918346E-04       4    7    1         0.3889945307E-02      0.9692346605E-02

    ------------------------------------------------
       NWT REQUIRED            3 OUTER ITERATIONS 
       AND A TOTAL OF          5 INNER ITERATIONS.
    ------------------------------------------------

 NO OUTPUT CONTROL FOR STRESS PERIOD   27   TIME STEP   18
 
 SOLVING FOR HEAD 
                                                   Max.-Head-Change                         Max.-Flux-Residual
  Residual-Control   Outer-Iter.   Inner-Iter.     Column Row Layer    Maximum-Head-Change  Column Row Layer    Maximum-Flux-Residual          L2-NORM 
          0                 1           2             4    7     1       0.1048700503E-01       4    7    1         0.5502536582E+00      0.1373635571E+01
          0                 2           2             4    7     1      -0.1020101979E-02       4    7    1        -0.5502552475E-01      0.1373200344E+00
          0                 3           1             4    7     1       0.6946514138E-04       4    7    1         0.3851786885E-02      0.9608451472E-02

    ------------------------------------------------
       NWT REQUIRED            3 OUTER ITERATIONS 
       AND A TOTAL OF          5 INNER ITERATIONS.
    ------------------------------------------------

 NO OUTPUT CONTROL FOR STRESS PERIOD   27   TIME STEP   19
 
 SOLVING FOR HEAD 
                                                   Max.-Head-Change                         Max.-Flux-Residual
  Residual-Control   Outer-Iter.   Inner-Iter.     Column Row Layer    Maximum-Head-Change  Column Row Layer    Maximum-Flux-Residual          L2-NORM 
          0                 1           2             4    7     1       0.1038555318E-01       4    7    1         0.5448993385E+00      0.1361788985E+01
          0                 2           2             4    7     1      -0.1010233425E-02       4    7    1        -0.5449008902E-01      0.1361414986E+00
          0                 3           1             4    7     1       0.6879313058E-04       4    7    1         0.3814306421E-02      0.9526425675E-02

    ------------------------------------------------
       NWT REQUIRED            3 OUTER ITERATIONS 
       AND A TOTAL OF          5 INNER ITERATIONS.
    ------------------------------------------------

 NO OUTPUT CONTROL FOR STRESS PERIOD   27   TIME STEP   20
 
 SOLVING FOR HEAD 
                                                   Max.-Head-Change                         Max.-Flux-Residual
  Residual-Control   Outer-Iter.   Inner-Iter.     Column Row Layer    Maximum-Head-Change  Column Row Layer    Maximum-Flux-Residual          L2-NORM 
          0                 1           2             4    7     1       0.1028546535E-01       4    7    1         0.5396170693E+00      0.1350245457E+01
          0                 2           2             4    7     1      -0.1000497553E-02       4    7    1        -0.5396185843E-01      0.1349924069E+00
          0                 3           1             4    7     1       0.6813015419E-04       4    7    1         0.3777330281E-02      0.9446460290E-02

    ------------------------------------------------
       NWT REQUIRED            3 OUTER ITERATIONS 
       AND A TOTAL OF          5 INNER ITERATIONS.
    ------------------------------------------------

 NO OUTPUT CONTROL FOR STRESS PERIOD   27   TIME STEP   21
 
 SOLVING FOR HEAD 
                                                   Max.-Head-Change                         Max.-Flux-Residual
  Residual-Control   Outer-Iter.   Inner-Iter.     Column Row Layer    Maximum-Head-Change  Column Row Layer    Maximum-Flux-Residual          L2-NORM 
          0                 1           2             4    7     1       0.1018711397E-01       4    7    1         0.5344276399E+00      0.1338975429E+01
          0                 2           2             4    7     1      -0.9909305939E-03       4    7    1        -0.5344291194E-01      0.1338700239E+00
          0                 3           1             4    7     1       0.6747868037E-04       4    7    1         0.3741004063E-02      0.9368386908E-02

    ------------------------------------------------
       NWT REQUIRED            3 OUTER ITERATIONS 
       AND A TOTAL OF          5 INNER ITERATIONS.
    ------------------------------------------------

 NO OUTPUT CONTROL FOR STRESS PERIOD   27   TIME STEP   22
 
 SOLVING FOR HEAD 
                                                   Max.-Head-Change                         Max.-Flux-Residual
  Residual-Control   Outer-Iter.   Inner-Iter.     Column Row Layer    Maximum-Head-Change  Column Row Layer    Maximum-Flux-Residual          L2-NORM 
          0                 1           2             4    7     1       0.1009004438E-01       4    7    1         0.5293061244E+00      0.1327947890E+01
          0                 2           2             4    7     1      -0.9814883185E-03       4    7    1        -0.5293075694E-01      0.1327713307E+00
          0                 3           1             4    7     1       0.6683569660E-04       4    7    1         0.3705153212E-02      0.9291807855E-02

    ------------------------------------------------
       NWT REQUIRED            3 OUTER ITERATIONS 
       AND A TOTAL OF          5 INNER ITERATIONS.
    ------------------------------------------------

 NO OUTPUT CONTROL FOR STRESS PERIOD   27   TIME STEP   23
 
 SOLVING FOR HEAD 
                                                   Max.-Head-Change                         Max.-Flux-Residual
  Residual-Control   Outer-Iter.   Inner-Iter.     Column Row Layer    Maximum-Head-Change  Column Row Layer    Maximum-Flux-Residual          L2-NORM 
          0                 1           2             4    7     1       0.9994634353E-02       4    7    1         0.5242731865E+00      0.1317161273E+01
          0                 2           2             4    7     1      -0.9722074752E-03       4    7    1        -0.5242745981E-01      0.1316959335E+00
          0                 3           1             4    7     1       0.6620370607E-04       4    7    1         0.3669922429E-02      0.9216767845E-02

    ------------------------------------------------
       NWT REQUIRED            3 OUTER ITERATIONS 
       AND A TOTAL OF          5 INNER ITERATIONS.
    ------------------------------------------------

 NO OUTPUT CONTROL FOR STRESS PERIOD   27   TIME STEP   24
 
 SOLVING FOR HEAD 
                                                   Max.-Head-Change                         Max.-Flux-Residual
  Residual-Control   Outer-Iter.   Inner-Iter.     Column Row Layer    Maximum-Head-Change  Column Row Layer    Maximum-Flux-Residual          L2-NORM 
          0                 1           2             4    7     1       0.9900570037E-02       4    7    1         0.5193115482E+00      0.1306587792E+01
          0                 2           2             4    7     1      -0.9630575345E-03       4    7    1        -0.5193129274E-01      0.1306415534E+00
          0                 3           1             4    7     1       0.6558062972E-04       4    7    1         0.3635190761E-02      0.9143318342E-02

    ------------------------------------------------
       NWT REQUIRED            3 OUTER ITERATIONS 
       AND A TOTAL OF          5 INNER ITERATIONS.
    ------------------------------------------------

 NO OUTPUT CONTROL FOR STRESS PERIOD   27   TIME STEP   25
 
 SOLVING FOR HEAD 
                                                   Max.-Head-Change                         Max.-Flux-Residual
  Residual-Control   Outer-Iter.   Inner-Iter.     Column Row Layer    Maximum-Head-Change  Column Row Layer    Maximum-Flux-Residual          L2-NORM 
          0                 1           2             4    7     1       0.9807825483E-02       4    7    1         0.5144196827E+00      0.1296224066E+01
          0                 2           2             4    7     1      -0.9540359718E-03       4    7    1        -0.5144210304E-01      0.1296076392E+00
          0                 3           1             4    7     1       0.6496629501E-04       4    7    1         0.3600947492E-02      0.9071226684E-02

    ------------------------------------------------
       NWT REQUIRED            3 OUTER ITERATIONS 
       AND A TOTAL OF          5 INNER ITERATIONS.
    ------------------------------------------------

 NO OUTPUT CONTROL FOR STRESS PERIOD   27   TIME STEP   26
 
 SOLVING FOR HEAD 
                                                   Max.-Head-Change                         Max.-Flux-Residual
  Residual-Control   Outer-Iter.   Inner-Iter.     Column Row Layer    Maximum-Head-Change  Column Row Layer    Maximum-Flux-Residual          L2-NORM 
          0                 1           2             4    7     1       0.9716501011E-02       4    7    1         0.5096036182E+00      0.1286045125E+01
          0                 2           2             4    7     1      -0.9451525454E-03       4    7    1        -0.5096049352E-01      0.1285919165E+00
          0                 3           1             4    7     1       0.6436136700E-04       4    7    1         0.3567234830E-02      0.9000252245E-02

    ------------------------------------------------
       NWT REQUIRED            3 OUTER ITERATIONS 
       AND A TOTAL OF          5 INNER ITERATIONS.
    ------------------------------------------------

 NO OUTPUT CONTROL FOR STRESS PERIOD   27   TIME STEP   27
 
 SOLVING FOR HEAD 
                                                   Max.-Head-Change                         Max.-Flux-Residual
  Residual-Control   Outer-Iter.   Inner-Iter.     Column Row Layer    Maximum-Head-Change  Column Row Layer    Maximum-Flux-Residual          L2-NORM 
          0                 1           2             4    7     1       0.9626561747E-02       4    7    1         0.5048611827E+00      0.1276054334E+01
          0                 2           2             4    7     1      -0.9364038636E-03       4    7    1        -0.5048624701E-01      0.1275945020E+00
          0                 3           1             4    7     1       0.6376561446E-04       4    7    1         0.3534037588E-02      0.8930542430E-02

    ------------------------------------------------
       NWT REQUIRED            3 OUTER ITERATIONS 
       AND A TOTAL OF          5 INNER ITERATIONS.
    ------------------------------------------------

 NO OUTPUT CONTROL FOR STRESS PERIOD   27   TIME STEP   28
 
 SOLVING FOR HEAD 
                                                   Max.-Head-Change                         Max.-Flux-Residual
  Residual-Control   Outer-Iter.   Inner-Iter.     Column Row Layer    Maximum-Head-Change  Column Row Layer    Maximum-Flux-Residual          L2-NORM 
          0                 1           2             4    7     1       0.9537839546E-02       4    7    1         0.5001831943E+00      0.1266221254E+01
          0                 2           2             4    7     1      -0.9277735705E-03       4    7    1        -0.5001844529E-01      0.1266129101E+00
          0                 3           1             4    7     1       0.6317792396E-04       4    7    1         0.3501291492E-02      0.8862030793E-02

    ------------------------------------------------
       NWT REQUIRED            3 OUTER ITERATIONS 
       AND A TOTAL OF          5 INNER ITERATIONS.
    ------------------------------------------------

 NO OUTPUT CONTROL FOR STRESS PERIOD   27   TIME STEP   29
 
 SOLVING FOR HEAD 
                                                   Max.-Head-Change                         Max.-Flux-Residual
  Residual-Control   Outer-Iter.   Inner-Iter.     Column Row Layer    Maximum-Head-Change  Column Row Layer    Maximum-Flux-Residual          L2-NORM 
          0                 1           2             4    7     1       0.9450442508E-02       4    7    1         0.4955756826E+00      0.1256563914E+01
          0                 2           2             4    7     1      -0.9192721805E-03       4    7    1        -0.4955769132E-01      0.1256485917E+00
          0                 3           1             4    7     1       0.6259901167E-04       4    7    1         0.3469038735E-02      0.8794678211E-02

    ------------------------------------------------
       NWT REQUIRED            3 OUTER ITERATIONS 
       AND A TOTAL OF          5 INNER ITERATIONS.
    ------------------------------------------------

 NO OUTPUT CONTROL FOR STRESS PERIOD   27   TIME STEP   30



 STREAM LISTING     PERIOD     27   STEP       30

 LAYER ROW COL. STREAM  RCH.  FLOW INTO     FLOW TO   FLOW OUT OF   OVRLND.     DIRECT     STREAM       STREAM     STREAM     STREAM   STREAMBED  STREAMBED
                SEG.NO.  NO.  STRM. RCH.    AQUIFER    STRM. RCH.    RUNOFF     PRECIP       ET          HEAD       DEPTH      WIDTH   CONDCTNC.   GRADIENT

   1    1    1     1     1    3.1499E+01  2.7310E-01   3.1226E+01  0.000E+00  0.000E+00  0.000E+00  1.09431E+03  1.262E+00  1.424E+01  6.407E-02  1.421E+00
   1    2    2     1     2    3.1226E+01  4.2272E-01   3.0803E+01  0.000E+00  0.000E+00  0.000E+00  1.08932E+03  1.259E+00  1.418E+01  9.925E-02  1.420E+00
   1    3    3     1     3    3.0803E+01  3.6028E-01   3.0443E+01  0.000E+00  0.000E+00  0.000E+00  1.08367E+03  1.256E+00  1.411E+01  8.466E-02  1.419E+00
   1    3    4     1     4    3.0443E+01  3.3158E-01   3.0111E+01  0.000E+00  0.000E+00  0.000E+00  1.07866E+03  1.253E+00  1.405E+01  7.797E-02  1.418E+00
   1    4    5     2     1    2.8111E+01  3.3470E-01   2.7777E+01  0.000E+00  0.000E+00  0.000E+00  1.07322E+03  1.291E+00  1.200E+01  7.800E-02  1.430E+00
   1    5    6     2     2    2.7777E+01  2.5697E-01   2.7520E+01  0.000E+00  0.000E+00  0.000E+00  1.06779E+03  1.283E+00  1.200E+01  6.000E-02  1.428E+00
   1    6    6     2     3    2.7520E+01  2.5654E-01   2.7263E+01  0.000E+00  0.000E+00  0.000E+00  1.06307E+03  1.276E+00  1.200E+01  6.000E-02  1.425E+00
   1    7    6     2     4    2.7263E+01  2.5611E-01   2.7007E+01  0.000E+00  0.000E+00  0.000E+00  1.05834E+03  1.268E+00  1.200E+01  6.000E-02  1.423E+00
   1    8    6     2     5    2.7007E+01  2.5567E-01   2.6751E+01  0.000E+00  0.000E+00  0.000E+00  1.05362E+03  1.261E+00  1.200E+01  6.000E-02  1.420E+00
   1    3    5     3     1    2.0000E+00  2.8252E-01   1.7175E+00  0.000E+00  0.000E+00  0.000E+00  1.07555E+03  1.909E+00  9.636E+00  7.227E-02  1.955E+00
   1    3    6     3     2    1.7175E+00  2.4905E-01   1.4684E+00  0.000E+00  0.000E+00  0.000E+00  1.07264E+03  1.727E+00  8.909E+00  6.682E-02  1.864E+00
   1    3    7     3     3    1.4684E+00  1.9718E-01   1.2712E+00  0.000E+00  0.000E+00  0.000E+00  1.06987E+03  1.555E+00  8.218E+00  5.547E-02  1.777E+00
   1    4    8     3     4    1.2712E+00  2.2567E-01   1.0456E+00  0.000E+00  0.000E+00  0.000E+00  1.06682E+03  1.364E+00  7.455E+00  6.709E-02  1.682E+00
   1    5    8     3     5    1.0456E+00  1.5790E-01   8.8768E-01  0.000E+00  0.000E+00  0.000E+00  1.06362E+03  1.164E+00  6.655E+00  4.991E-02  1.582E+00
   1    6    8     3     6    8.8768E-01  5.5980E-02   8.3170E-01  0.000E+00  0.000E+00  0.000E+00  1.06158E+03  1.036E+00  6.145E+00  1.844E-02  1.518E+00
   1    5   10     4     1    1.0000E+01  9.0919E-02   9.9091E+00  0.000E+00  0.000E+00  0.000E+00  1.07836E+03  6.368E-01  1.000E+01  2.500E-02  1.212E+00
   1    5    9     4     2    9.9091E+00  1.8158E-01   9.7275E+00  0.000E+00  0.000E+00  0.000E+00  1.07154E+03  6.315E-01  1.000E+01  5.000E-02  1.211E+00
   1    6    8     4     3    9.7275E+00  1.2689E-01   9.6006E+00  0.000E+00  0.000E+00  0.000E+00  1.06381E+03  6.256E-01  1.000E+01  3.500E-02  1.209E+00
   1    6    8     5     1    1.0432E+01  2.2686E-01   1.0205E+01  0.000E+00  0.000E+00  0.000E+00  1.05868E+03  6.790E-01  1.542E+01  6.166E-02  1.226E+00
   1    7    7     5     2    1.0205E+01  2.7894E-01   9.9265E+00  0.000E+00  0.000E+00  0.000E+00  1.05417E+03  6.732E-01  1.519E+01  7.594E-02  1.224E+00
   1    8    7     5     3    9.9265E+00  1.9221E-01   9.7343E+00  0.000E+00  0.000E+00  0.000E+00  1.04992E+03  6.676E-01  1.497E+01  5.241E-02  1.223E+00
   1    8    6     5     4    9.7343E+00  1.3577E-01   9.5985E+00  0.000E+00  0.000E+00  0.000E+00  1.04691E+03  6.637E-01  1.482E+01  3.706E-02  1.221E+00
   1    9    6     6     1    3.6350E+01  2.7151E-01   3.6078E+01  0.000E+00  0.000E+00  0.000E+00  1.04425E+03  1.525E+00  1.200E+01  6.000E-02  1.508E+00
   1   10    7     6     2    3.6078E+01  2.7109E-01   3.5807E+01  0.000E+00  0.000E+00  0.000E+00  1.03970E+03  1.518E+00  1.200E+01  6.000E-02  1.506E+00
   1   11    7     6     3    3.5807E+01  2.7068E-01   3.5537E+01  0.000E+00  0.000E+00  0.000E+00  1.03515E+03  1.511E+00  1.200E+01  6.000E-02  1.504E+00
   1   12    7     6     4    3.5537E+01  2.7027E-01   3.5266E+01  0.000E+00  0.000E+00  0.000E+00  1.03060E+03  1.504E+00  1.200E+01  6.000E-02  1.501E+00
   1   13    7     6     5    3.5266E+01  8.3870E-03   3.5258E+01  0.000E+00  0.000E+00  0.000E+00  1.02741E+03  1.501E+00  1.200E+01  2.400E-02  1.165E-01
   1   14    9     7     1    1.5000E+02  1.3379E+00   1.4866E+02  0.000E+00  0.000E+00  0.000E+00  1.03987E+03  2.288E+00  5.529E+01  5.593E-01  7.974E-01
   1   13    8     7     2    1.4866E+02  1.8369E+00   1.4683E+02  0.000E+00  0.000E+00  0.000E+00  1.03478E+03  2.279E+00  5.526E+01  6.148E-01  9.960E-01
   1   13    7     7     3    1.4683E+02  1.4683E+00   1.4536E+02  0.000E+00  0.000E+00  0.000E+00  1.02969E+03  2.270E+00  5.522E+01  5.585E-01  8.764E-01
   1   13    6     8     1    1.8061E+02  9.6804E-01   1.7965E+02  0.000E+00  0.000E+00  0.000E+00  1.02489E+03  3.017E+00  4.375E+01  4.458E-01  7.238E-01
   1   13    5     8     2    1.7965E+02  2.0540E-01   1.7944E+02  0.000E+00  0.000E+00  0.000E+00  1.01864E+03  3.013E+00  4.369E+01  4.452E-01  1.538E-01
   1   13    4     8     3    1.7944E+02 -2.3554E+00   1.8180E+02  0.000E+00  0.000E+00  0.000E+00  1.01240E+03  3.020E+00  4.379E+01  4.462E+00 -1.759E-01
   1   13    3     8     4    1.8180E+02 -3.5972E+00   1.8539E+02  0.000E+00  0.000E+00  0.000E+00  1.00616E+03  3.039E+00  4.406E+01  4.490E+00 -2.671E-01
   1   13    2     8     5    1.8539E+02 -2.5245E+00   1.8792E+02  0.000E+00  0.000E+00  0.000E+00  9.99932E+02  3.058E+00  4.433E+01  4.518E+00 -1.863E-01
   1   13    1     8     6    1.8792E+02 -1.9292E+00   1.8985E+02  0.000E+00  0.000E+00  0.000E+00  9.94946E+02  3.071E+00  4.453E+01  2.723E+00 -2.362E-01
   1    8    6     9     1    0.0000E+00  0.0000E+00   0.0000E+00  0.000E+00  0.000E+00  0.000E+00  1.07875E+03  0.000E+00  4.000E+00  0.000E+00  1.000E+00
   1    8    5     9     2    0.0000E+00  0.0000E+00   0.0000E+00  0.000E+00  0.000E+00  0.000E+00  1.07825E+03  0.000E+00  4.000E+00  0.000E+00  1.000E+00





UNSATURATED ZONE PACKAGE VOLUMETRIC BUDGET FOR  TIME STEP    30 STRESS PERIOD   27
  ------------------------------------------------------------------------------



     CUMULATIVE VOLUMES      L**3       RATES FOR THIS TIME STEP      L**3/T
     ------------------                 ------------------------

           IN:                                      IN:
           ---                                      ---
        INFILTRATION =   997186712.1339          INFILTRATION =           0.8475

          OUT:                                     OUT:
          ----                                     ----
              UZF ET =   864142319.5214                UZF ET =           0.7500
        UZF RECHARGE =       73224.0000          UZF RECHARGE =       0.0000E+00

            IN - OUT =   132971168.6125              IN - OUT =       9.7500E-02

          STORAGE:                                 STORAGE:
          --------                                 --------
      STORAGE CHANGE =   132972444.8424        STORAGE CHANGE =       9.7500E-02

 PERCENT DISCREPANCY IS DIFFERENCE BETWEEN IN-OUT MINUS CHANGE IN STORAGE
 DIVIDED BY THE AVERAGE OF IN AND OUT TIMES 100

 PERCENT DISCREPANCY =          -0.00     PERCENT DISCREPANCY =           0.00






1
  VOLUMETRIC BUDGET FOR AGRICULTURAL FIELDS AT  END OF TIME STEP   30, STRESS PERIOD  27
  ------------------------------------------------------------------------------

     CUMULATIVE VOLUMES      L**3       RATES FOR THIS TIME STEP      L**3/T
     ------------------                 ------------------------

           IN:                                      IN:
           ---                                      ---
               AG WELLS  =   328055200.0000                 AG WELLS  =           0.0000
      DIVERSION SEGMENTS =   611151808.0000        DIVERSION SEGMENTS =           0.0000
       IRRIGATION PONDS  =           0.0000         IRRIGATION PONDS  =           0.0000
           GW IRRIGATION =           0.0000             GW IRRIGATION =           0.0000
           SW IRRIGATION =           0.0000             SW IRRIGATION =           0.0000
        SYSTEM LOSSES GW =           0.0000          SYSTEM LOSSES GW =           0.0000
        SYSTEM LOSSES SW =           0.0000          SYSTEM LOSSES SW =           0.0000

                TOTAL IN =   939207040.0000                  TOTAL IN =           0.0000

          OUT:                                     OUT:
          ----                                     ----
               AG WELLS  =           0.0000                 AG WELLS  =           0.0000
      DIVERSION SEGMENTS =           0.0000        DIVERSION SEGMENTS =           0.0000
       IRRIGATION PONDS  =           0.0000         IRRIGATION PONDS  =           0.0000
           GW IRRIGATION =   328055200.0000             GW IRRIGATION =           0.0000
           SW IRRIGATION =   611163648.0000             SW IRRIGATION =           0.0000
        SYSTEM LOSSES GW =           0.0000          SYSTEM LOSSES GW =           0.0000
        SYSTEM LOSSES SW =           0.0000          SYSTEM LOSSES SW =           0.0000

               TOTAL OUT =   939218816.0000                 TOTAL OUT =           0.0000

                IN - OUT =      -11776.0000                  IN - OUT =           0.0000

     PERCENT DISCREPANCY =          -0.00         PERCENT DISCREPANCY =           0.00



1
  VOLUMETRIC BUDGET FOR ENTIRE MODEL AT END OF TIME STEP   30, STRESS PERIOD  27
  ------------------------------------------------------------------------------

     CUMULATIVE VOLUMES      L**3       RATES FOR THIS TIME STEP      L**3/T
     ------------------                 ------------------------

           IN:                                      IN:
           ---                                      ---
             STORAGE     =   563903808.0000               STORAGE     =           3.2191
       CONSTANT HEAD     =           0.0000         CONSTANT HEAD     =           0.0000
     HEAD DEP BOUNDS     =    19565820.0000       HEAD DEP BOUNDS     =           0.2859
      STREAM LEAKAGE     =   810222272.0000        STREAM LEAKAGE     =          12.0576
        UZF RECHARGE     =       73223.9531          UZF RECHARGE     =           0.0000
               GW ET     =           0.0000                 GW ET     =           0.0000
     SURFACE LEAKAGE     =           0.0000       SURFACE LEAKAGE     =           0.0000
           AG WELLS      =           0.0000             AG WELLS      =           0.0000

                TOTAL IN =  1393765120.0000                  TOTAL IN =          15.5627

          OUT:                                     OUT:
          ----                                     ----
             STORAGE     =   301558432.0000               STORAGE     =           4.8660
       CONSTANT HEAD     =           0.0000         CONSTANT HEAD     =           0.0000
     HEAD DEP BOUNDS     =    19889610.0000       HEAD DEP BOUNDS     =           0.2909
      STREAM LEAKAGE     =   741940224.0000        STREAM LEAKAGE     =          10.4062
        UZF RECHARGE     =           0.0000          UZF RECHARGE     =           0.0000
               GW ET     =     2326724.7500                 GW ET     =           0.0000
     SURFACE LEAKAGE     =           0.0000       SURFACE LEAKAGE     =           0.0000
           AG WELLS      =   328055200.0000             AG WELLS      =           0.0000

               TOTAL OUT =  1393770240.0000                 TOTAL OUT =          15.5631

                IN - OUT =       -5120.0000                  IN - OUT =      -4.6730E-04

     PERCENT DISCREPANCY =          -0.00         PERCENT DISCREPANCY =          -0.00






         TIME SUMMARY AT END OF TIME STEP   30 IN STRESS PERIOD   27
                    SECONDS     MINUTES      HOURS       DAYS        YEARS
                    -----------------------------------------------------------
   TIME STEP LENGTH  87667.      1461.1      24.352      1.0147     2.77799E-03
 STRESS PERIOD TIME 2.63000E+06  43833.      730.56      30.440     8.33397E-02
         TOTAL TIME 6.84668E+07 1.14111E+06  19019.      792.44      2.1696    
1
1
                            STRESS PERIOD NO.   28, LENGTH =   2630000.    
                            -----------------------------------------------

                              NUMBER OF TIME STEPS =    30

                               MULTIPLIER FOR DELT =     1.000

                            INITIAL TIME STEP SIZE =   87666.66    

 REUSING NON-PARAMETER GHB CELLS FROM LAST STRESS PERIOD

      2 GHB CELLS

 REUSING STREAM SEGMENT DATA FROM LAST STRESS PERIOD



            AREAL INFILTRATION RATE
 READING ON UNIT   19 WITH FORMAT: (FREE)              

            1           2           3           4           5           6           7           8           9          10
 ........................................................................................................................
   1   1.0000E-10  2.0000E-10   0.000       0.000       0.000       0.000       0.000       0.000       0.000       0.000    
   2   2.0000E-10  1.0000E-10  2.0000E-10   0.000       0.000      8.0000E-10  8.0000E-10  5.0000E-10   0.000       0.000    
   3    0.000      5.0000E-10  1.0000E-10  1.0000E-10  8.0000E-10  8.0000E-10  5.0000E-10  5.0000E-10   0.000       0.000    
   4   8.0000E-10  5.0000E-10  1.0000E-10  1.0000E-10  1.0000E-10  1.0000E-10  1.0000E-10  1.0000E-10  2.0000E-10   0.000    
   5   8.0000E-10  5.0000E-10  1.0000E-10  1.0000E-10  1.0000E-10  1.0000E-10  1.0000E-10  1.0000E-10  1.0000E-10  1.0000E-10
   6   8.0000E-10  5.0000E-10  5.0000E-10  2.0000E-10  2.0000E-10  1.0000E-10  1.0000E-10  1.0000E-10  1.0000E-10  5.0000E-10
   7   8.0000E-10  5.0000E-10  5.0000E-10  2.0000E-10  2.0000E-10  1.0000E-10  1.0000E-10  2.0000E-10  2.0000E-10   0.000    
   8    0.000      5.0000E-10  5.0000E-10  2.0000E-10  2.0000E-10  1.0000E-10  1.0000E-10  2.0000E-10  5.0000E-10   0.000    
   9    0.000      5.0000E-10  5.0000E-10  2.0000E-10  2.0000E-10  1.0000E-10  1.0000E-10  2.0000E-10  5.0000E-10   0.000    
  10    0.000      5.0000E-10  5.0000E-10  2.0000E-10  2.0000E-10  1.0000E-10  1.0000E-10  2.0000E-10  5.0000E-10  8.0000E-10
  11    0.000      1.0000E-10  1.0000E-10  1.0000E-10  1.0000E-10  1.0000E-10  1.0000E-10  2.0000E-10  5.0000E-10   0.000    
  12   1.0000E-10  1.0000E-10  1.0000E-10  1.0000E-10  1.0000E-10  1.0000E-10  1.0000E-10  1.0000E-10  2.0000E-10   0.000    
  13   1.0000E-10  1.0000E-10  2.0000E-10  2.0000E-10  2.0000E-10  2.0000E-10  2.0000E-10  1.0000E-10  1.0000E-10   0.000    
  14    0.000      2.0000E-10  5.0000E-10  5.0000E-10  5.0000E-10  5.0000E-10  5.0000E-10  2.0000E-10  1.0000E-10   0.000    
  15    0.000       0.000      8.0000E-10  8.0000E-10  8.0000E-10  8.0000E-10   0.000       0.000       0.000       0.000    

                  ET RATE =  5.000000E-10

 USING ET EXTINCTION DEPTH FROM PREVIOUS STRESS PERIOD. CURRENT PERIOD IS:      28

 USING EXTINCTION WATER CONTENT FROM PREVIOUS STRESS PERIOD. CURRENT PERIOD IS:      28

 USING AIR ENTRY PRESSURE FROM PREVIOUS STRESS PERIOD. CURRENT PERIOD IS:      28

 USING ROOT PRESSURE HEAD FROM PREVIOUS STRESS PERIOD. CURRENT PERIOD IS:      28

 USING ROOT ACTIVITY FROM PREVIOUS STRESS PERIOD. CURRENT PERIOD IS:      28

 PROCESSING AG STRESS PERIOD DATA

 READING AG STRESS PERIOD DATA

 READING IRRIGATION SEGMENT

 READING IRRIGATION WELL

 READING SUPPLEMENTAL WELL

 NO IRRPOND OR REUSING IRRPOND DATA FROM LAST STRESS PERIOD

 END PROCESSING AG STRESS PERIOD DATA OPTIONS
 
 SOLVING FOR HEAD 
                                                   Max.-Head-Change                         Max.-Flux-Residual
  Residual-Control   Outer-Iter.   Inner-Iter.     Column Row Layer    Maximum-Head-Change  Column Row Layer    Maximum-Flux-Residual          L2-NORM 
          0                 1           2             4    7     1       0.9364447515E-02       4    7    1         0.4910368786E+00      0.1439054062E+01
          0                 2           2             4    7     1      -0.9109071706E-03       4    7    1        -0.4910380810E-01      0.1429707747E+00
          0                 3           1             4    7     1       0.6202938467E-04       4    7    1         0.3437266920E-02      0.9922412928E-02

    ------------------------------------------------
       NWT REQUIRED            3 OUTER ITERATIONS 
       AND A TOTAL OF          5 INNER ITERATIONS.
    ------------------------------------------------

 NO OUTPUT CONTROL FOR STRESS PERIOD   28   TIME STEP    1
 
 SOLVING FOR HEAD 
                                                   Max.-Head-Change                         Max.-Flux-Residual
  Residual-Control   Outer-Iter.   Inner-Iter.     Column Row Layer    Maximum-Head-Change  Column Row Layer    Maximum-Flux-Residual          L2-NORM 
          0                 1           2             2   13     1       0.9838054142E-02       4   13    1         0.5653742772E+00      0.1633587687E+01
          0                 2           2             4   13     1      -0.9447915243E-03       4   13    1        -0.5595847986E-01      0.1614932098E+00
          0                 3           1             4   13     1       0.6341905675E-04       4   13    1         0.3862022484E-02      0.1113261331E-01

    ------------------------------------------------
       NWT REQUIRED            3 OUTER ITERATIONS 
       AND A TOTAL OF          5 INNER ITERATIONS.
    ------------------------------------------------

 NO OUTPUT CONTROL FOR STRESS PERIOD   28   TIME STEP    2
 
 SOLVING FOR HEAD 
                                                   Max.-Head-Change                         Max.-Flux-Residual
  Residual-Control   Outer-Iter.   Inner-Iter.     Column Row Layer    Maximum-Head-Change  Column Row Layer    Maximum-Flux-Residual          L2-NORM 
          0                 1           2             4    7     1       0.9196540922E-02       2   13    1         0.5127048579E+00      0.1577133425E+01
          0                 2           2             4    7     1      -0.8945743568E-03       4   13    1        -0.5048907326E-01      0.1560712019E+00
          0                 3           1             4    7     1       0.6091718016E-04       4   13    1         0.3483892538E-02      0.1077469468E-01

    ------------------------------------------------
       NWT REQUIRED            3 OUTER ITERATIONS 
       AND A TOTAL OF          5 INNER ITERATIONS.
    ------------------------------------------------

 NO OUTPUT CONTROL FOR STRESS PERIOD   28   TIME STEP    3
 
 SOLVING FOR HEAD 
                                                   Max.-Head-Change                         Max.-Flux-Residual
  Residual-Control   Outer-Iter.   Inner-Iter.     Column Row Layer    Maximum-Head-Change  Column Row Layer    Maximum-Flux-Residual          L2-NORM 
          0                 1           2             4    7     1       0.9114553530E-02       4    7    1         0.4778428984E+00      0.1527120071E+01
          0                 2           2             4    7     1      -0.8865991812E-03       4    7    1        -0.4778440206E-01      0.1512790080E+00
          0                 3           1             4    7     1       0.6037410104E-04       4    7    1         0.3344908520E-02      0.1045838234E-01

    ------------------------------------------------
       NWT REQUIRED            3 OUTER ITERATIONS 
       AND A TOTAL OF          5 INNER ITERATIONS.
    ------------------------------------------------

 NO OUTPUT CONTROL FOR STRESS PERIOD   28   TIME STEP    4
 
 SOLVING FOR HEAD 
                                                   Max.-Head-Change                         Max.-Flux-Residual
  Residual-Control   Outer-Iter.   Inner-Iter.     Column Row Layer    Maximum-Head-Change  Column Row Layer    Maximum-Flux-Residual          L2-NORM 
          0                 1           2             4    7     1       0.9033870844E-02       4    7    1         0.4735845787E+00      0.1482741587E+01
          0                 2           2             4    7     1      -0.8787509186E-03       4    7    1        -0.4735856758E-01      0.1470271234E+00
          0                 3           1             4    7     1       0.5983966391E-04       4    7    1         0.3315100114E-02      0.1017764426E-01

    ------------------------------------------------
       NWT REQUIRED            3 OUTER ITERATIONS 
       AND A TOTAL OF          5 INNER ITERATIONS.
    ------------------------------------------------

 NO OUTPUT CONTROL FOR STRESS PERIOD   28   TIME STEP    5
 
 SOLVING FOR HEAD 
                                                   Max.-Head-Change                         Max.-Flux-Residual
  Residual-Control   Outer-Iter.   Inner-Iter.     Column Row Layer    Maximum-Head-Change  Column Row Layer    Maximum-Flux-Residual          L2-NORM 
          0                 1           2             4    7     1       0.8954323757E-02       4    7    1         0.4693865311E+00      0.1443292007E+01
          0                 2           2             4    7     1      -0.8710131202E-03       4    7    1        -0.4693876038E-01      0.1432644828E+00
          0                 3           1             4    7     1       0.5931274933E-04       4    7    1         0.3285713629E-02      0.9928796921E-02

    ------------------------------------------------
       NWT REQUIRED            3 OUTER ITERATIONS 
       AND A TOTAL OF          5 INNER ITERATIONS.
    ------------------------------------------------

 NO OUTPUT CONTROL FOR STRESS PERIOD   28   TIME STEP    6
 
 SOLVING FOR HEAD 
                                                   Max.-Head-Change                         Max.-Flux-Residual
  Residual-Control   Outer-Iter.   Inner-Iter.     Column Row Layer    Maximum-Head-Change  Column Row Layer    Maximum-Flux-Residual          L2-NORM 
          0                 1           2             4    7     1       0.8876152809E-02       4    7    1         0.4652621125E+00      0.1408125429E+01
          0                 2           2             4    7     1      -0.8634091837E-03       4    7    1        -0.4652631616E-01      0.1398710890E+00
          0                 3           1             4    7     1       0.5879494952E-04       4    7    1         0.3256842539E-02      0.9705008546E-02

    ------------------------------------------------
       NWT REQUIRED            3 OUTER ITERATIONS 
       AND A TOTAL OF          5 INNER ITERATIONS.
    ------------------------------------------------

 NO OUTPUT CONTROL FOR STRESS PERIOD   28   TIME STEP    7
 
 SOLVING FOR HEAD 
                                                   Max.-Head-Change                         Max.-Flux-Residual
  Residual-Control   Outer-Iter.   Inner-Iter.     Column Row Layer    Maximum-Head-Change  Column Row Layer    Maximum-Flux-Residual          L2-NORM 
          0                 1           2             4    7     1       0.8799048472E-02       4    7    1         0.4611942945E+00      0.1376698791E+01
          0                 2           2             4    7     1      -0.8559090003E-03       4    7    1        -0.4611953205E-01      0.1368529207E+00
          0                 3           1             4    7     1       0.5828421558E-04       4    7    1         0.3228367671E-02      0.9504719620E-02

    ------------------------------------------------
       NWT REQUIRED            3 OUTER ITERATIONS 
       AND A TOTAL OF          5 INNER ITERATIONS.
    ------------------------------------------------

 NO OUTPUT CONTROL FOR STRESS PERIOD   28   TIME STEP    8
 
 SOLVING FOR HEAD 
                                                   Max.-Head-Change                         Max.-Flux-Residual
  Residual-Control   Outer-Iter.   Inner-Iter.     Column Row Layer    Maximum-Head-Change  Column Row Layer    Maximum-Flux-Residual          L2-NORM 
          0                 1           2             4    7     1       0.8723113327E-02       4    7    1         0.4571891536E+00      0.1348506292E+01
          0                 2           2             4    7     1      -0.8485225480E-03       4    7    1        -0.4571901572E-01      0.1341427316E+00
          0                 3           1             4    7     1       0.5778122606E-04       4    7    1         0.3200331534E-02      0.9324950670E-02

    ------------------------------------------------
       NWT REQUIRED            3 OUTER ITERATIONS 
       AND A TOTAL OF          5 INNER ITERATIONS.
    ------------------------------------------------

 NO OUTPUT CONTROL FOR STRESS PERIOD   28   TIME STEP    9
 
 SOLVING FOR HEAD 
                                                   Max.-Head-Change                         Max.-Flux-Residual
  Residual-Control   Outer-Iter.   Inner-Iter.     Column Row Layer    Maximum-Head-Change  Column Row Layer    Maximum-Flux-Residual          L2-NORM 
          0                 1           2             4    7     1       0.8648322958E-02       4    7    1         0.4532446335E+00      0.1323153895E+01
          0                 2           2             4    7     1      -0.8412474528E-03       4    7    1        -0.4532456156E-01      0.1317020117E+00
          0                 3           1             4    7     1       0.5728581920E-04       4    7    1         0.3172719744E-02      0.9163000462E-02

    ------------------------------------------------
       NWT REQUIRED            3 OUTER ITERATIONS 
       AND A TOTAL OF          5 INNER ITERATIONS.
    ------------------------------------------------

 NO OUTPUT CONTROL FOR STRESS PERIOD   28   TIME STEP   10
 
 SOLVING FOR HEAD 
                                                   Max.-Head-Change                         Max.-Flux-Residual
  Residual-Control   Outer-Iter.   Inner-Iter.     Column Row Layer    Maximum-Head-Change  Column Row Layer    Maximum-Flux-Residual          L2-NORM 
          0                 1           2             4    7     1       0.8574648305E-02       4    7    1         0.4493594683E+00      0.1300240684E+01
          0                 2           2             4    7     1      -0.8340808868E-03       4    7    1        -0.4493604293E-01      0.1294928870E+00
          0                 3           1             4    7     1       0.5679780306E-04       4    7    1         0.3145523452E-02      0.9015845554E-02

    ------------------------------------------------
       NWT REQUIRED            3 OUTER ITERATIONS 
       AND A TOTAL OF          5 INNER ITERATIONS.
    ------------------------------------------------

 NO OUTPUT CONTROL FOR STRESS PERIOD   28   TIME STEP   11
 
 SOLVING FOR HEAD 
                                                   Max.-Head-Change                         Max.-Flux-Residual
  Residual-Control   Outer-Iter.   Inner-Iter.     Column Row Layer    Maximum-Head-Change  Column Row Layer    Maximum-Flux-Residual          L2-NORM 
          0                 1           2             4    7     1       0.8502053351E-02       4    7    1         0.4455321514E+00      0.1279438142E+01
          0                 2           2             4    7     1      -0.8270193472E-03       4    7    1        -0.4455330921E-01      0.1274843575E+00
          0                 3           1             4    7     1       0.5631693894E-04       4    7    1         0.3118732103E-02      0.8881740835E-02

    ------------------------------------------------
       NWT REQUIRED            3 OUTER ITERATIONS 
       AND A TOTAL OF          5 INNER ITERATIONS.
    ------------------------------------------------

 NO OUTPUT CONTROL FOR STRESS PERIOD   28   TIME STEP   12
 
 SOLVING FOR HEAD 
                                                   Max.-Head-Change                         Max.-Flux-Residual
  Residual-Control   Outer-Iter.   Inner-Iter.     Column Row Layer    Maximum-Head-Change  Column Row Layer    Maximum-Flux-Residual          L2-NORM 
          0                 1           2             4    7     1       0.8430379435E-02       4    7    1         0.4417534391E+00      0.1260474219E+01
          0                 2           2             4    7     1      -0.8200474006E-03       4    7    1        -0.4417543601E-01      0.1256501057E+00
          0                 3           1             4    7     1       0.5584217544E-04       4    7    1         0.3092280991E-02      0.8759244790E-02

    ------------------------------------------------
       NWT REQUIRED            3 OUTER ITERATIONS 
       AND A TOTAL OF          5 INNER ITERATIONS.
    ------------------------------------------------

 NO OUTPUT CONTROL FOR STRESS PERIOD   28   TIME STEP   13
 
 SOLVING FOR HEAD 
                                                   Max.-Head-Change                         Max.-Flux-Residual
  Residual-Control   Outer-Iter.   Inner-Iter.     Column Row Layer    Maximum-Head-Change  Column Row Layer    Maximum-Flux-Residual          L2-NORM 
          0                 1           2             4    7     1       0.8359876752E-02       4    7    1         0.4380372332E+00      0.1243116252E+01
          0                 2           2             4    7     1      -0.8131893833E-03       4    7    1        -0.4380381349E-01      0.1239674444E+00
          0                 3           1             4    7     1       0.5537517032E-04       4    7    1         0.3066267415E-02      0.8646273735E-02

    ------------------------------------------------
       NWT REQUIRED            3 OUTER ITERATIONS 
       AND A TOTAL OF          5 INNER ITERATIONS.
    ------------------------------------------------

 NO OUTPUT CONTROL FOR STRESS PERIOD   28   TIME STEP   14
 
 SOLVING FOR HEAD 
                                                   Max.-Head-Change                         Max.-Flux-Residual
  Residual-Control   Outer-Iter.   Inner-Iter.     Column Row Layer    Maximum-Head-Change  Column Row Layer    Maximum-Flux-Residual          L2-NORM 
          0                 1           2             4    7     1       0.8290375543E-02       4    7    1         0.4343743780E+00      0.1227127177E+01
          0                 2           2             4    7     1      -0.8064287831E-03       4    7    1        -0.4343752609E-01      0.1224149364E+00
          0                 3           1             4    7     1       0.5491479879E-04       4    7    1         0.3040627301E-02      0.8541974034E-02

    ------------------------------------------------
       NWT REQUIRED            3 OUTER ITERATIONS 
       AND A TOTAL OF          5 INNER ITERATIONS.
    ------------------------------------------------

 NO OUTPUT CONTROL FOR STRESS PERIOD   28   TIME STEP   15
 
 SOLVING FOR HEAD 
                                                   Max.-Head-Change                         Max.-Flux-Residual
  Residual-Control   Outer-Iter.   Inner-Iter.     Column Row Layer    Maximum-Head-Change  Column Row Layer    Maximum-Flux-Residual          L2-NORM 
          0                 1           2             4    7     1       0.8221718321E-02       4    7    1         0.4307560713E+00      0.1212348915E+01
          0                 2           2             4    7     1      -0.7997502811E-03       4    7    1        -0.4307569362E-01      0.1209803242E+00
          0                 3           1             4    7     1       0.5446001785E-04       4    7    1         0.3015299046E-02      0.8445224923E-02

    ------------------------------------------------
       NWT REQUIRED            3 OUTER ITERATIONS 
       AND A TOTAL OF          5 INNER ITERATIONS.
    ------------------------------------------------

 NO OUTPUT CONTROL FOR STRESS PERIOD   28   TIME STEP   16
 
 SOLVING FOR HEAD 
                                                   Max.-Head-Change                         Max.-Flux-Residual
  Residual-Control   Outer-Iter.   Inner-Iter.     Column Row Layer    Maximum-Head-Change  Column Row Layer    Maximum-Flux-Residual          L2-NORM 
          0                 1           2             4    7     1       0.8154157844E-02       4    7    1         0.4271962768E+00      0.1198617789E+01
          0                 2           2             4    7     1      -0.7931784622E-03       4    7    1        -0.4271971237E-01      0.1196383691E+00
          0                 3           1             4    7     1       0.5401250159E-04       4    7    1         0.2990380357E-02      0.8354448946E-02

    ------------------------------------------------
       NWT REQUIRED            3 OUTER ITERATIONS 
       AND A TOTAL OF          5 INNER ITERATIONS.
    ------------------------------------------------

 NO OUTPUT CONTROL FOR STRESS PERIOD   28   TIME STEP   17
 
 SOLVING FOR HEAD 
                                                   Max.-Head-Change                         Max.-Flux-Residual
  Residual-Control   Outer-Iter.   Inner-Iter.     Column Row Layer    Maximum-Head-Change  Column Row Layer    Maximum-Flux-Residual          L2-NORM 
          0                 1           2             4    7     1       0.8087393579E-02       4    7    1         0.4236785939E+00      0.1185788048E+01
          0                 2           2             4    7     1      -0.7866840944E-03       4    7    1        -0.4236794237E-01      0.1183854708E+00
          0                 3           1             4    7     1       0.5357025936E-04       4    7    1         0.2965756461E-02      0.8269346351E-02

    ------------------------------------------------
       NWT REQUIRED            3 OUTER ITERATIONS 
       AND A TOTAL OF          5 INNER ITERATIONS.
    ------------------------------------------------

 NO OUTPUT CONTROL FOR STRESS PERIOD   28   TIME STEP   18
 
 SOLVING FOR HEAD 
                                                   Max.-Head-Change                         Max.-Flux-Residual
  Residual-Control   Outer-Iter.   Inner-Iter.     Column Row Layer    Maximum-Head-Change  Column Row Layer    Maximum-Flux-Residual          L2-NORM 
          0                 1           2             4    7     1       0.8021676954E-02       4    7    1         0.4202169466E+00      0.1173756647E+01
          0                 2           2             4    7     1      -0.7802916339E-03       4    7    1        -0.4202177595E-01      0.1172078422E+00
          0                 3           1             4    7     1       0.5313495710E-04       4    7    1         0.2941524825E-02      0.8189179137E-02

    ------------------------------------------------
       NWT REQUIRED            3 OUTER ITERATIONS 
       AND A TOTAL OF          5 INNER ITERATIONS.
    ------------------------------------------------

 NO OUTPUT CONTROL FOR STRESS PERIOD   28   TIME STEP   19
 
 SOLVING FOR HEAD 
                                                   Max.-Head-Change                         Max.-Flux-Residual
  Residual-Control   Outer-Iter.   Inner-Iter.     Column Row Layer    Maximum-Head-Change  Column Row Layer    Maximum-Flux-Residual          L2-NORM 
          0                 1           2             4    7     1       0.7956710665E-02       4    7    1         0.4167948643E+00      0.1162426438E+01
          0                 2           2             4    7     1      -0.7739721615E-03       4    7    1        -0.4167956611E-01      0.1160966682E+00
          0                 3           1             4    7     1       0.5270462450E-04       4    7    1         0.2917570134E-02      0.8113252244E-02

    ------------------------------------------------
       NWT REQUIRED            3 OUTER ITERATIONS 
       AND A TOTAL OF          5 INNER ITERATIONS.
    ------------------------------------------------

 NO OUTPUT CONTROL FOR STRESS PERIOD   28   TIME STEP   20
 
 SOLVING FOR HEAD 
                                                   Max.-Head-Change                         Max.-Flux-Residual
  Residual-Control   Outer-Iter.   Inner-Iter.     Column Row Layer    Maximum-Head-Change  Column Row Layer    Maximum-Flux-Residual          L2-NORM 
          0                 1           2             4    7     1       0.7892754829E-02       4    7    1         0.4134264395E+00      0.1151719474E+01
          0                 2           2             4    7     1      -0.7677509790E-03       4    7    1        -0.4134272203E-01      0.1150456058E+00
          0                 3           1             4    7     1       0.5228098550E-04       4    7    1         0.2893991049E-02      0.8041735548E-02

    ------------------------------------------------
       NWT REQUIRED            3 OUTER ITERATIONS 
       AND A TOTAL OF          5 INNER ITERATIONS.
    ------------------------------------------------

 NO OUTPUT CONTROL FOR STRESS PERIOD   28   TIME STEP   21
 
 SOLVING FOR HEAD 
                                                   Max.-Head-Change                         Max.-Flux-Residual
  Residual-Control   Outer-Iter.   Inner-Iter.     Column Row Layer    Maximum-Head-Change  Column Row Layer    Maximum-Flux-Residual          L2-NORM 
          0                 1           2             4    7     1       0.7829508663E-02       4    7    1         0.4100956512E+00      0.1141545957E+01
          0                 2           2             4    7     1      -0.7615988287E-03       4    7    1        -0.4100964165E-01      0.1140447701E+00
          0                 3           1             4    7     1       0.5186204694E-04       4    7    1         0.2870675437E-02      0.7973237489E-02

    ------------------------------------------------
       NWT REQUIRED            3 OUTER ITERATIONS 
       AND A TOTAL OF          5 INNER ITERATIONS.
    ------------------------------------------------

 NO OUTPUT CONTROL FOR STRESS PERIOD   28   TIME STEP   22
 
 SOLVING FOR HEAD 
                                                   Max.-Head-Change                         Max.-Flux-Residual
  Residual-Control   Outer-Iter.   Inner-Iter.     Column Row Layer    Maximum-Head-Change  Column Row Layer    Maximum-Flux-Residual          L2-NORM 
          0                 1           2             4    7     1       0.7767231041E-02       4    7    1         0.4068164124E+00      0.1131859764E+01
          0                 2           2             4    7     1      -0.7555408919E-03       4    7    1        -0.4068171627E-01      0.1130905873E+00
          0                 3           1             4    7     1       0.5144952389E-04       4    7    1         0.2847720653E-02      0.7907493726E-02

    ------------------------------------------------
       NWT REQUIRED            3 OUTER ITERATIONS 
       AND A TOTAL OF          5 INNER ITERATIONS.
    ------------------------------------------------

 NO OUTPUT CONTROL FOR STRESS PERIOD   28   TIME STEP   23
 
 SOLVING FOR HEAD 
                                                   Max.-Head-Change                         Max.-Flux-Residual
  Residual-Control   Outer-Iter.   Inner-Iter.     Column Row Layer    Maximum-Head-Change  Column Row Layer    Maximum-Flux-Residual          L2-NORM 
          0                 1           2             4    7     1       0.7705758257E-02       4    7    1         0.4035800141E+00      0.1122588678E+01
          0                 2           2             4    7     1      -0.7495612444E-03       4    7    1        -0.4035807496E-01      0.1121758385E+00
          0                 3           1             4    7     1       0.5104233250E-04       4    7    1         0.2825065772E-02      0.7844770832E-02

    ------------------------------------------------
       NWT REQUIRED            3 OUTER ITERATIONS 
       AND A TOTAL OF          5 INNER ITERATIONS.
    ------------------------------------------------

 NO OUTPUT CONTROL FOR STRESS PERIOD   28   TIME STEP   24
 
 SOLVING FOR HEAD 
                                                   Max.-Head-Change                         Max.-Flux-Residual
  Residual-Control   Outer-Iter.   Inner-Iter.     Column Row Layer    Maximum-Head-Change  Column Row Layer    Maximum-Flux-Residual          L2-NORM 
          0                 1           2             4    7     1       0.7644940731E-02       4    7    1         0.4003779679E+00      0.1113703834E+01
          0                 2           2             4    7     1      -0.7436453362E-03       4    7    1        -0.4003786891E-01      0.1112981245E+00
          0                 3           1             4    7     1       0.5063948122E-04       4    7    1         0.2802651349E-02      0.7784296423E-02

    ------------------------------------------------
       NWT REQUIRED            3 OUTER ITERATIONS 
       AND A TOTAL OF          5 INNER ITERATIONS.
    ------------------------------------------------

 NO OUTPUT CONTROL FOR STRESS PERIOD   28   TIME STEP   25
 
 SOLVING FOR HEAD 
                                                   Max.-Head-Change                         Max.-Flux-Residual
  Residual-Control   Outer-Iter.   Inner-Iter.     Column Row Layer    Maximum-Head-Change  Column Row Layer    Maximum-Flux-Residual          L2-NORM 
          0                 1           2             4    7     1       0.7585037281E-02       4    7    1         0.3972246507E+00      0.1105157786E+01
          0                 2           2             4    7     1      -0.7378183435E-03       4    7    1        -0.3972253580E-01      0.1104527695E+00
          0                 3           1             4    7     1       0.5024268499E-04       4    7    1         0.2780578033E-02      0.7726054389E-02

    ------------------------------------------------
       NWT REQUIRED            3 OUTER ITERATIONS 
       AND A TOTAL OF          5 INNER ITERATIONS.
    ------------------------------------------------

 NO OUTPUT CONTROL FOR STRESS PERIOD   28   TIME STEP   26
 
 SOLVING FOR HEAD 
                                                   Max.-Head-Change                         Max.-Flux-Residual
  Residual-Control   Outer-Iter.   Inner-Iter.     Column Row Layer    Maximum-Head-Change  Column Row Layer    Maximum-Flux-Residual          L2-NORM 
          0                 1           2             4    7     1       0.7525892374E-02       4    7    1         0.3941113496E+00      0.1096918336E+01
          0                 2           2             4    7     1      -0.7320651369E-03       4    7    1        -0.3941120434E-01      0.1096368460E+00
          0                 3           1             4    7     1       0.4985091321E-04       4    7    1         0.2758784844E-02      0.7669577579E-02

    ------------------------------------------------
       NWT REQUIRED            3 OUTER ITERATIONS 
       AND A TOTAL OF          5 INNER ITERATIONS.
    ------------------------------------------------

 NO OUTPUT CONTROL FOR STRESS PERIOD   28   TIME STEP   27
 
 SOLVING FOR HEAD 
                                                   Max.-Head-Change                         Max.-Flux-Residual
  Residual-Control   Outer-Iter.   Inner-Iter.     Column Row Layer    Maximum-Head-Change  Column Row Layer    Maximum-Flux-Residual          L2-NORM 
          0                 1           2             4    7     1       0.7467488977E-02       4    7    1         0.3910373778E+00      0.1088955859E+01
          0                 2           2             4    7     1      -0.7263840591E-03       4    7    1        -0.3910380581E-01      0.1088476227E+00
          0                 3           1             4    7     1       0.4946405300E-04       4    7    1         0.2737266948E-02      0.7614905703E-02

    ------------------------------------------------
       NWT REQUIRED            3 OUTER ITERATIONS 
       AND A TOTAL OF          5 INNER ITERATIONS.
    ------------------------------------------------

 NO OUTPUT CONTROL FOR STRESS PERIOD   28   TIME STEP   28
 
 SOLVING FOR HEAD 
                                                   Max.-Head-Change                         Max.-Flux-Residual
  Residual-Control   Outer-Iter.   Inner-Iter.     Column Row Layer    Maximum-Head-Change  Column Row Layer    Maximum-Flux-Residual          L2-NORM 
          0                 1           2             4    7     1       0.7409939416E-02       4    7    1         0.3880092301E+00      0.1081228461E+01
          0                 2           2             4    7     1      -0.7207860371E-03       4    7    1        -0.3880098977E-01      0.1080808486E+00
          0                 3           1             4    7     1       0.4908284857E-04       4    7    1         0.2716069821E-02      0.7561875663E-02

    ------------------------------------------------
       NWT REQUIRED            3 OUTER ITERATIONS 
       AND A TOTAL OF          5 INNER ITERATIONS.
    ------------------------------------------------

 NO OUTPUT CONTROL FOR STRESS PERIOD   28   TIME STEP   29
 
 SOLVING FOR HEAD 
                                                   Max.-Head-Change                         Max.-Flux-Residual
  Residual-Control   Outer-Iter.   Inner-Iter.     Column Row Layer    Maximum-Head-Change  Column Row Layer    Maximum-Flux-Residual          L2-NORM 
          0                 1           2             4    7     1       0.7352960286E-02       4    7    1         0.3850105965E+00      0.1073743316E+01
          0                 2           2             4    7     1      -0.7152435028E-03       4    7    1        -0.3850112515E-01      0.1073375363E+00
          0                 3           1             4    7     1       0.4870542274E-04       4    7    1         0.2695079310E-02      0.7510231796E-02

    ------------------------------------------------
       NWT REQUIRED            3 OUTER ITERATIONS 
       AND A TOTAL OF          5 INNER ITERATIONS.
    ------------------------------------------------

 NO OUTPUT CONTROL FOR STRESS PERIOD   28   TIME STEP   30



 STREAM LISTING     PERIOD     28   STEP       30

 LAYER ROW COL. STREAM  RCH.  FLOW INTO     FLOW TO   FLOW OUT OF   OVRLND.     DIRECT     STREAM       STREAM     STREAM     STREAM   STREAMBED  STREAMBED
                SEG.NO.  NO.  STRM. RCH.    AQUIFER    STRM. RCH.    RUNOFF     PRECIP       ET          HEAD       DEPTH      WIDTH   CONDCTNC.   GRADIENT

   1    1    1     1     1    5.7748E+01  3.6407E-01   5.7384E+01  0.000E+00  0.000E+00  0.000E+00  1.09455E+03  1.498E+00  1.799E+01  8.095E-02  1.499E+00
   1    2    2     1     2    5.7384E+01  5.6377E-01   5.6820E+01  0.000E+00  0.000E+00  0.000E+00  1.08955E+03  1.492E+00  1.793E+01  1.255E-01  1.497E+00
   1    3    3     1     3    5.6820E+01  4.8075E-01   5.6340E+01  0.000E+00  0.000E+00  0.000E+00  1.08390E+03  1.485E+00  1.786E+01  1.072E-01  1.495E+00
   1    3    4     1     4    5.6340E+01  4.4266E-01   5.5897E+01  0.000E+00  0.000E+00  0.000E+00  1.07889E+03  1.480E+00  1.781E+01  9.882E-02  1.493E+00
   1    4    5     2     1    5.3897E+01  3.8302E-01   5.3514E+01  0.000E+00  0.000E+00  0.000E+00  1.07384E+03  1.911E+00  1.200E+01  7.800E-02  1.637E+00
   1    5    6     2     2    5.3514E+01  2.9420E-01   5.3220E+01  0.000E+00  0.000E+00  0.000E+00  1.06841E+03  1.903E+00  1.200E+01  6.000E-02  1.634E+00
   1    6    6     2     3    5.3220E+01  2.9382E-01   5.2926E+01  0.000E+00  0.000E+00  0.000E+00  1.06369E+03  1.897E+00  1.200E+01  6.000E-02  1.632E+00
   1    7    6     2     4    5.2926E+01  2.9344E-01   5.2633E+01  0.000E+00  0.000E+00  0.000E+00  1.05897E+03  1.891E+00  1.200E+01  6.000E-02  1.630E+00
   1    8    6     2     5    5.2633E+01  2.9306E-01   5.2339E+01  0.000E+00  0.000E+00  0.000E+00  1.05424E+03  1.884E+00  1.200E+01  6.000E-02  1.628E+00
   1    3    5     3     1    2.0000E+00  2.8252E-01   1.7175E+00  0.000E+00  0.000E+00  0.000E+00  1.07555E+03  1.909E+00  9.636E+00  7.227E-02  1.955E+00
   1    3    6     3     2    1.7175E+00  2.4905E-01   1.4684E+00  0.000E+00  0.000E+00  0.000E+00  1.07264E+03  1.727E+00  8.909E+00  6.682E-02  1.864E+00
   1    3    7     3     3    1.4684E+00  1.9718E-01   1.2712E+00  0.000E+00  0.000E+00  0.000E+00  1.06987E+03  1.555E+00  8.218E+00  5.547E-02  1.777E+00
   1    4    8     3     4    1.2712E+00  2.2567E-01   1.0456E+00  0.000E+00  0.000E+00  0.000E+00  1.06682E+03  1.364E+00  7.455E+00  6.709E-02  1.682E+00
   1    5    8     3     5    1.0456E+00  1.5790E-01   8.8768E-01  0.000E+00  0.000E+00  0.000E+00  1.06362E+03  1.164E+00  6.655E+00  4.991E-02  1.582E+00
   1    6    8     3     6    8.8768E-01  5.5980E-02   8.3170E-01  0.000E+00  0.000E+00  0.000E+00  1.06158E+03  1.036E+00  6.145E+00  1.844E-02  1.518E+00
   1    5   10     4     1    1.0000E+01  9.0919E-02   9.9091E+00  0.000E+00  0.000E+00  0.000E+00  1.07836E+03  6.368E-01  1.000E+01  2.500E-02  1.212E+00
   1    5    9     4     2    9.9091E+00  1.8158E-01   9.7275E+00  0.000E+00  0.000E+00  0.000E+00  1.07154E+03  6.315E-01  1.000E+01  5.000E-02  1.211E+00
   1    6    8     4     3    9.7275E+00  1.2689E-01   9.6006E+00  0.000E+00  0.000E+00  0.000E+00  1.06381E+03  6.256E-01  1.000E+01  3.500E-02  1.209E+00
   1    6    8     5     1    1.0432E+01  2.2686E-01   1.0205E+01  0.000E+00  0.000E+00  0.000E+00  1.05868E+03  6.790E-01  1.542E+01  6.166E-02  1.226E+00
   1    7    7     5     2    1.0205E+01  2.7894E-01   9.9265E+00  0.000E+00  0.000E+00  0.000E+00  1.05417E+03  6.732E-01  1.519E+01  7.594E-02  1.224E+00
   1    8    7     5     3    9.9265E+00  1.9221E-01   9.7343E+00  0.000E+00  0.000E+00  0.000E+00  1.04992E+03  6.676E-01  1.497E+01  5.241E-02  1.223E+00
   1    8    6     5     4    9.7343E+00  1.3577E-01   9.5985E+00  0.000E+00  0.000E+00  0.000E+00  1.04691E+03  6.637E-01  1.482E+01  3.706E-02  1.221E+00
   1    9    6     6     1    6.1938E+01  3.0608E-01   6.1632E+01  0.000E+00  0.000E+00  0.000E+00  1.04483E+03  2.101E+00  1.200E+01  6.000E-02  1.700E+00
   1   10    7     6     2    6.1632E+01  3.0571E-01   6.1326E+01  0.000E+00  0.000E+00  0.000E+00  1.04028E+03  2.095E+00  1.200E+01  6.000E-02  1.698E+00
   1   11    7     6     3    6.1326E+01  3.0533E-01   6.1021E+01  0.000E+00  0.000E+00  0.000E+00  1.03573E+03  2.089E+00  1.200E+01  6.000E-02  1.696E+00
   1   12    7     6     4    6.1021E+01  3.0496E-01   6.0716E+01  0.000E+00  0.000E+00  0.000E+00  1.03117E+03  2.083E+00  1.200E+01  6.000E-02  1.694E+00
   1   13    7     6     5    6.0716E+01  2.2189E-02   6.0694E+01  0.000E+00  0.000E+00  0.000E+00  1.02799E+03  2.079E+00  1.200E+01  2.400E-02  3.082E-01
   1   14    9     7     1    1.5000E+02  1.3384E+00   1.4866E+02  0.000E+00  0.000E+00  0.000E+00  1.03987E+03  2.288E+00  5.529E+01  5.593E-01  7.977E-01
   1   13    8     7     2    1.4866E+02  1.8387E+00   1.4682E+02  0.000E+00  0.000E+00  0.000E+00  1.03478E+03  2.279E+00  5.526E+01  6.148E-01  9.970E-01
   1   13    7     7     3    1.4682E+02  1.4665E+00   1.4536E+02  0.000E+00  0.000E+00  0.000E+00  1.02969E+03  2.270E+00  5.522E+01  5.585E-01  8.753E-01
   1   13    6     8     1    2.0605E+02  1.0719E+00   2.0498E+02  0.000E+00  0.000E+00  0.000E+00  1.02504E+03  3.170E+00  4.596E+01  4.684E-01  7.628E-01
   1   13    5     8     2    2.0498E+02  2.6846E-01   2.0471E+02  0.000E+00  0.000E+00  0.000E+00  1.01879E+03  3.166E+00  4.591E+01  4.678E-01  1.913E-01
   1   13    4     8     3    2.0471E+02 -2.2131E+00   2.0692E+02  0.000E+00  0.000E+00  0.000E+00  1.01255E+03  3.172E+00  4.599E+01  4.686E+00 -1.574E-01
   1   13    3     8     4    2.0692E+02 -3.5216E+00   2.1044E+02  0.000E+00  0.000E+00  0.000E+00  1.00631E+03  3.188E+00  4.623E+01  4.711E+00 -2.492E-01
   1   13    2     8     5    2.1044E+02 -2.4739E+00   2.1292E+02  0.000E+00  0.000E+00  0.000E+00  1.00008E+03  3.205E+00  4.648E+01  4.736E+00 -1.741E-01
   1   13    1     8     6    2.1292E+02 -1.8865E+00   2.1480E+02  0.000E+00  0.000E+00  0.000E+00  9.95093E+02  3.218E+00  4.665E+01  2.853E+00 -2.204E-01
   1    8    6     9     1    0.0000E+00  0.0000E+00   0.0000E+00  0.000E+00  0.000E+00  0.000E+00  1.07875E+03  0.000E+00  4.000E+00  0.000E+00  1.000E+00
   1    8    5     9     2    0.0000E+00  0.0000E+00   0.0000E+00  0.000E+00  0.000E+00  0.000E+00  1.07825E+03  0.000E+00  4.000E+00  0.000E+00  1.000E+00





UNSATURATED ZONE PACKAGE VOLUMETRIC BUDGET FOR  TIME STEP    30 STRESS PERIOD   28
  ------------------------------------------------------------------------------



     CUMULATIVE VOLUMES      L**3       RATES FOR THIS TIME STEP      L**3/T
     ------------------                 ------------------------

           IN:                                      IN:
           ---                                      ---
        INFILTRATION =   999415637.0067          INFILTRATION =           0.8475

          OUT:                                     OUT:
          ----                                     ----
              UZF ET =   866114819.4040                UZF ET =           0.7500
        UZF RECHARGE =       73224.0000          UZF RECHARGE =       0.0000E+00

            IN - OUT =   133227593.6026              IN - OUT =       9.7500E-02

          STORAGE:                                 STORAGE:
          --------                                 --------
      STORAGE CHANGE =   133228869.8516        STORAGE CHANGE =       9.7500E-02

 PERCENT DISCREPANCY IS DIFFERENCE BETWEEN IN-OUT MINUS CHANGE IN STORAGE
 DIVIDED BY THE AVERAGE OF IN AND OUT TIMES 100

 PERCENT DISCREPANCY =          -0.00     PERCENT DISCREPANCY =           0.00






1
  VOLUMETRIC BUDGET FOR AGRICULTURAL FIELDS AT  END OF TIME STEP   30, STRESS PERIOD  28
  ------------------------------------------------------------------------------

     CUMULATIVE VOLUMES      L**3       RATES FOR THIS TIME STEP      L**3/T
     ------------------                 ------------------------

           IN:                                      IN:
           ---                                      ---
               AG WELLS  =   328055200.0000                 AG WELLS  =           0.0000
      DIVERSION SEGMENTS =   611151808.0000        DIVERSION SEGMENTS =           0.0000
       IRRIGATION PONDS  =           0.0000         IRRIGATION PONDS  =           0.0000
           GW IRRIGATION =           0.0000             GW IRRIGATION =           0.0000
           SW IRRIGATION =           0.0000             SW IRRIGATION =           0.0000
        SYSTEM LOSSES GW =           0.0000          SYSTEM LOSSES GW =           0.0000
        SYSTEM LOSSES SW =           0.0000          SYSTEM LOSSES SW =           0.0000

                TOTAL IN =   939207040.0000                  TOTAL IN =           0.0000

          OUT:                                     OUT:
          ----                                     ----
               AG WELLS  =           0.0000                 AG WELLS  =           0.0000
      DIVERSION SEGMENTS =           0.0000        DIVERSION SEGMENTS =           0.0000
       IRRIGATION PONDS  =           0.0000         IRRIGATION PONDS  =           0.0000
           GW IRRIGATION =   328055200.0000             GW IRRIGATION =           0.0000
           SW IRRIGATION =   611163648.0000             SW IRRIGATION =           0.0000
        SYSTEM LOSSES GW =           0.0000          SYSTEM LOSSES GW =           0.0000
        SYSTEM LOSSES SW =           0.0000          SYSTEM LOSSES SW =           0.0000

               TOTAL OUT =   939218816.0000                 TOTAL OUT =           0.0000

                IN - OUT =      -11776.0000                  IN - OUT =           0.0000

     PERCENT DISCREPANCY =          -0.00         PERCENT DISCREPANCY =           0.00



1
  VOLUMETRIC BUDGET FOR ENTIRE MODEL AT END OF TIME STEP   30, STRESS PERIOD  28
  ------------------------------------------------------------------------------

     CUMULATIVE VOLUMES      L**3       RATES FOR THIS TIME STEP      L**3/T
     ------------------                 ------------------------

           IN:                                      IN:
           ---                                      ---
             STORAGE     =   570404800.0000               STORAGE     =           2.1126
       CONSTANT HEAD     =           0.0000         CONSTANT HEAD     =           0.0000
     HEAD DEP BOUNDS     =    20317786.0000       HEAD DEP BOUNDS     =           0.2859
      STREAM LEAKAGE     =   844520000.0000        STREAM LEAKAGE     =          13.0385
        UZF RECHARGE     =       73223.9531          UZF RECHARGE     =           0.0000
               GW ET     =           0.0000                 GW ET     =           0.0000
     SURFACE LEAKAGE     =           0.0000       SURFACE LEAKAGE     =           0.0000
           AG WELLS      =           0.0000             AG WELLS      =           0.0000

                TOTAL IN =  1435315712.0000                  TOTAL IN =          15.4371

          OUT:                                     OUT:
          ----                                     ----
             STORAGE     =   317072000.0000               STORAGE     =           5.0470
       CONSTANT HEAD     =           0.0000         CONSTANT HEAD     =           0.0000
     HEAD DEP BOUNDS     =    20660790.0000       HEAD DEP BOUNDS     =           0.2946
      STREAM LEAKAGE     =   767206976.0000        STREAM LEAKAGE     =          10.0950
        UZF RECHARGE     =           0.0000          UZF RECHARGE     =           0.0000
               GW ET     =     2328317.0000                 GW ET     =       1.1935E-03
     SURFACE LEAKAGE     =           0.0000       SURFACE LEAKAGE     =           0.0000
           AG WELLS      =   328055200.0000             AG WELLS      =           0.0000

               TOTAL OUT =  1435323264.0000                 TOTAL OUT =          15.4379

                IN - OUT =       -7552.0000                  IN - OUT =      -8.3542E-04

     PERCENT DISCREPANCY =          -0.00         PERCENT DISCREPANCY =          -0.01






         TIME SUMMARY AT END OF TIME STEP   30 IN STRESS PERIOD   28
                    SECONDS     MINUTES      HOURS       DAYS        YEARS
                    -----------------------------------------------------------
   TIME STEP LENGTH  87667.      1461.1      24.352      1.0147     2.77799E-03
 STRESS PERIOD TIME 2.63000E+06  43833.      730.56      30.440     8.33397E-02
         TOTAL TIME 7.10967E+07 1.18494E+06  19749.      822.88      2.2529    
1
1
                            STRESS PERIOD NO.   29, LENGTH =   2630000.    
                            -----------------------------------------------

                              NUMBER OF TIME STEPS =    30

                               MULTIPLIER FOR DELT =     1.000

                            INITIAL TIME STEP SIZE =   87666.66    

 REUSING NON-PARAMETER GHB CELLS FROM LAST STRESS PERIOD

      2 GHB CELLS

 REUSING STREAM SEGMENT DATA FROM LAST STRESS PERIOD



            AREAL INFILTRATION RATE
 READING ON UNIT   19 WITH FORMAT: (FREE)              

            1           2           3           4           5           6           7           8           9          10
 ........................................................................................................................
   1   1.0000E-10  2.0000E-10   0.000       0.000       0.000       0.000       0.000       0.000       0.000       0.000    
   2   2.0000E-10  1.0000E-10  2.0000E-10   0.000       0.000      8.0000E-10  8.0000E-10  5.0000E-10   0.000       0.000    
   3    0.000      5.0000E-10  1.0000E-10  1.0000E-10  8.0000E-10  8.0000E-10  5.0000E-10  5.0000E-10   0.000       0.000    
   4   8.0000E-10  5.0000E-10  1.0000E-10  1.0000E-10  1.0000E-10  1.0000E-10  1.0000E-10  1.0000E-10  2.0000E-10   0.000    
   5   8.0000E-10  5.0000E-10  1.0000E-10  1.0000E-10  1.0000E-10  1.0000E-10  1.0000E-10  1.0000E-10  1.0000E-10  1.0000E-10
   6   8.0000E-10  5.0000E-10  5.0000E-10  2.0000E-10  2.0000E-10  1.0000E-10  1.0000E-10  1.0000E-10  1.0000E-10  5.0000E-10
   7   8.0000E-10  5.0000E-10  5.0000E-10  2.0000E-10  2.0000E-10  1.0000E-10  1.0000E-10  2.0000E-10  2.0000E-10   0.000    
   8    0.000      5.0000E-10  5.0000E-10  2.0000E-10  2.0000E-10  1.0000E-10  1.0000E-10  2.0000E-10  5.0000E-10   0.000    
   9    0.000      5.0000E-10  5.0000E-10  2.0000E-10  2.0000E-10  1.0000E-10  1.0000E-10  2.0000E-10  5.0000E-10   0.000    
  10    0.000      5.0000E-10  5.0000E-10  2.0000E-10  2.0000E-10  1.0000E-10  1.0000E-10  2.0000E-10  5.0000E-10  8.0000E-10
  11    0.000      1.0000E-10  1.0000E-10  1.0000E-10  1.0000E-10  1.0000E-10  1.0000E-10  2.0000E-10  5.0000E-10   0.000    
  12   1.0000E-10  1.0000E-10  1.0000E-10  1.0000E-10  1.0000E-10  1.0000E-10  1.0000E-10  1.0000E-10  2.0000E-10   0.000    
  13   1.0000E-10  1.0000E-10  2.0000E-10  2.0000E-10  2.0000E-10  2.0000E-10  2.0000E-10  1.0000E-10  1.0000E-10   0.000    
  14    0.000      2.0000E-10  5.0000E-10  5.0000E-10  5.0000E-10  5.0000E-10  5.0000E-10  2.0000E-10  1.0000E-10   0.000    
  15    0.000       0.000      8.0000E-10  8.0000E-10  8.0000E-10  8.0000E-10   0.000       0.000       0.000       0.000    

                  ET RATE =  2.500000E-08

 USING ET EXTINCTION DEPTH FROM PREVIOUS STRESS PERIOD. CURRENT PERIOD IS:      29

 USING EXTINCTION WATER CONTENT FROM PREVIOUS STRESS PERIOD. CURRENT PERIOD IS:      29

 USING AIR ENTRY PRESSURE FROM PREVIOUS STRESS PERIOD. CURRENT PERIOD IS:      29

 USING ROOT PRESSURE HEAD FROM PREVIOUS STRESS PERIOD. CURRENT PERIOD IS:      29

 USING ROOT ACTIVITY FROM PREVIOUS STRESS PERIOD. CURRENT PERIOD IS:      29

 PROCESSING AG STRESS PERIOD DATA

 READING AG STRESS PERIOD DATA

 READING IRRIGATION SEGMENT

 READING IRRIGATION WELL

 READING SUPPLEMENTAL WELL

 NO IRRPOND OR REUSING IRRPOND DATA FROM LAST STRESS PERIOD

 END PROCESSING AG STRESS PERIOD DATA OPTIONS
 
 SOLVING FOR HEAD 
                                                   Max.-Head-Change                         Max.-Flux-Residual
  Residual-Control   Outer-Iter.   Inner-Iter.     Column Row Layer    Maximum-Head-Change  Column Row Layer    Maximum-Flux-Residual          L2-NORM 
          0                 1           2             4    7     1       0.7296810210E-02       4    7    1         0.3820562951E+00      0.1065496554E+01
          0                 2           2             4    7     1      -0.7097816133E-03       4    7    1        -0.3820569379E-01      0.1065407269E+00
          0                 3           1             4    7     1       0.4833348845E-04       4    7    1         0.2674399107E-02      0.7456924287E-02

    ------------------------------------------------
       NWT REQUIRED            3 OUTER ITERATIONS 
       AND A TOTAL OF          5 INNER ITERATIONS.
    ------------------------------------------------

 NO OUTPUT CONTROL FOR STRESS PERIOD   29   TIME STEP    1
 
 SOLVING FOR HEAD 
                                                   Max.-Head-Change                         Max.-Flux-Residual
  Residual-Control   Outer-Iter.   Inner-Iter.     Column Row Layer    Maximum-Head-Change  Column Row Layer    Maximum-Flux-Residual          L2-NORM 
          0                 1           2             4   13     1      -0.1083306897E-01       4   13    1        -0.6340600787E+00      0.1470445935E+01
          0                 2           2             4   13     1       0.1044363646E-02       4   13    1         0.6284851071E-01      0.1450386114E+00
          0                 3           1             4   13     1      -0.7023252180E-04       4   13    1        -0.4345476176E-02      0.9965931901E-02

    ------------------------------------------------
       NWT REQUIRED            3 OUTER ITERATIONS 
       AND A TOTAL OF          5 INNER ITERATIONS.
    ------------------------------------------------

 NO OUTPUT CONTROL FOR STRESS PERIOD   29   TIME STEP    2
 
 SOLVING FOR HEAD 
                                                   Max.-Head-Change                         Max.-Flux-Residual
  Residual-Control   Outer-Iter.   Inner-Iter.     Column Row Layer    Maximum-Head-Change  Column Row Layer    Maximum-Flux-Residual          L2-NORM 
          0                 1           2             4   13     1      -0.1195905308E-01       4   13    1        -0.6989480345E+00      0.1570585734E+01
          0                 2           2             4   13     1       0.1119037774E-02       4   13    1         0.6592662431E-01      0.1532297959E+00
          0                 3           1             4   13     1      -0.7525815802E-04       4   13    1        -0.4558468034E-02      0.1051109572E-01

    ------------------------------------------------
       NWT REQUIRED            3 OUTER ITERATIONS 
       AND A TOTAL OF          5 INNER ITERATIONS.
    ------------------------------------------------

 NO OUTPUT CONTROL FOR STRESS PERIOD   29   TIME STEP    3
 
 SOLVING FOR HEAD 
                                                   Max.-Head-Change                         Max.-Flux-Residual
  Residual-Control   Outer-Iter.   Inner-Iter.     Column Row Layer    Maximum-Head-Change  Column Row Layer    Maximum-Flux-Residual          L2-NORM 
          0                 1           2             4   13     1      -0.1087868624E-01       4   13    1        -0.6233367344E+00      0.1485853247E+01
          0                 2           2             4   13     1       0.1048541582E-02       4   13    1         0.6177200571E-01      0.1464831351E+00
          0                 3           1             4   13     1      -0.7048983216E-04       4   13    1        -0.4269524811E-02      0.1005863755E-01

    ------------------------------------------------
       NWT REQUIRED            3 OUTER ITERATIONS 
       AND A TOTAL OF          5 INNER ITERATIONS.
    ------------------------------------------------

 NO OUTPUT CONTROL FOR STRESS PERIOD   29   TIME STEP    4
 
 SOLVING FOR HEAD 
                                                   Max.-Head-Change                         Max.-Flux-Residual
  Residual-Control   Outer-Iter.   Inner-Iter.     Column Row Layer    Maximum-Head-Change  Column Row Layer    Maximum-Flux-Residual          L2-NORM 
          0                 1           2             4   13     1      -0.9871115149E-02       4   13    1        -0.5653867827E+00      0.1415601379E+01
          0                 2           2             4   13     1       0.9513147969E-03       4   13    1         0.5602245287E-01      0.1396948769E+00
          0                 3           1             4   13     1      -0.6394501659E-04       4   13    1        -0.3871605396E-02      0.9605155148E-02

    ------------------------------------------------
       NWT REQUIRED            3 OUTER ITERATIONS 
       AND A TOTAL OF          5 INNER ITERATIONS.
    ------------------------------------------------

 NO OUTPUT CONTROL FOR STRESS PERIOD   29   TIME STEP    5
 
 SOLVING FOR HEAD 
                                                   Max.-Head-Change                         Max.-Flux-Residual
  Residual-Control   Outer-Iter.   Inner-Iter.     Column Row Layer    Maximum-Head-Change  Column Row Layer    Maximum-Flux-Residual          L2-NORM 
          0                 1           2             2   13     1      -0.9058163330E-02       4   13    1        -0.5130324947E+00      0.1353690141E+01
          0                 2           2             4   13     1       0.8634796050E-03       4   13    1         0.5082893618E-01      0.1337183659E+00
          0                 3           1             4   13     1      -0.5803014540E-04       4   13    1        -0.3512018115E-02      0.9207078649E-02

    ------------------------------------------------
       NWT REQUIRED            3 OUTER ITERATIONS 
       AND A TOTAL OF          5 INNER ITERATIONS.
    ------------------------------------------------

 NO OUTPUT CONTROL FOR STRESS PERIOD   29   TIME STEP    6
 
 SOLVING FOR HEAD 
                                                   Max.-Head-Change                         Max.-Flux-Residual
  Residual-Control   Outer-Iter.   Inner-Iter.     Column Row Layer    Maximum-Head-Change  Column Row Layer    Maximum-Flux-Residual          L2-NORM 
          0                 1           2             2   13     1      -0.8387048895E-02       2   13    1        -0.4718334922E+00      0.1299149574E+01
          0                 2           2             4   13     1       0.7840850243E-03       4   13    1         0.4613509164E-01      0.1284592113E+00
          0                 3           1             4   13     1      -0.5268969030E-04       4   13    1        -0.3187383445E-02      0.8857740828E-02

    ------------------------------------------------
       NWT REQUIRED            3 OUTER ITERATIONS 
       AND A TOTAL OF          5 INNER ITERATIONS.
    ------------------------------------------------

 NO OUTPUT CONTROL FOR STRESS PERIOD   29   TIME STEP    7
 
 SOLVING FOR HEAD 
                                                   Max.-Head-Change                         Max.-Flux-Residual
  Residual-Control   Outer-Iter.   Inner-Iter.     Column Row Layer    Maximum-Head-Change  Column Row Layer    Maximum-Flux-Residual          L2-NORM 
          0                 1           2             2   13     1      -0.7765168370E-02       2   13    1        -0.4368532887E+00      0.1251088265E+01
          0                 2           2             2   13     1       0.7254917625E-03       2   13    1         0.4195487032E-01      0.1238273627E+00
          0                 3           1             4   13     1      -0.4786141805E-04       4   13    1        -0.2893948253E-02      0.8549102659E-02

    ------------------------------------------------
       NWT REQUIRED            3 OUTER ITERATIONS 
       AND A TOTAL OF          5 INNER ITERATIONS.
    ------------------------------------------------

 NO OUTPUT CONTROL FOR STRESS PERIOD   29   TIME STEP    8
 
 SOLVING FOR HEAD 
                                                   Max.-Head-Change                         Max.-Flux-Residual
  Residual-Control   Outer-Iter.   Inner-Iter.     Column Row Layer    Maximum-Head-Change  Column Row Layer    Maximum-Flux-Residual          L2-NORM 
          0                 1           2             2   13     1      -0.7189097141E-02       2   13    1        -0.4044448774E+00      0.1208709166E+01
          0                 2           2             2   13     1       0.6714145040E-03       2   13    1         0.3886085687E-01      0.1184792889E+00
          0                 3           1             4    7     1       0.4546739442E-04       4   13    1        -0.2629498241E-02      0.8195727690E-02

    ------------------------------------------------
       NWT REQUIRED            3 OUTER ITERATIONS 
       AND A TOTAL OF          5 INNER ITERATIONS.
    ------------------------------------------------

 NO OUTPUT CONTROL FOR STRESS PERIOD   29   TIME STEP    9
 
 SOLVING FOR HEAD 
                                                   Max.-Head-Change                         Max.-Flux-Residual
  Residual-Control   Outer-Iter.   Inner-Iter.     Column Row Layer    Maximum-Head-Change  Column Row Layer    Maximum-Flux-Residual          L2-NORM 
          0                 1           2             4    7     1       0.6812102225E-02       2   13    1        -0.3744635600E+00      0.1172331432E+01
          0                 2           2             4    7     1      -0.6626326102E-03       2   13    1         0.3597937557E-01      0.1162360652E+00
          0                 3           1             4    7     1       0.4512281624E-04       4    7    1         0.2496565332E-02      0.8045030859E-02

    ------------------------------------------------
       NWT REQUIRED            3 OUTER ITERATIONS 
       AND A TOTAL OF          5 INNER ITERATIONS.
    ------------------------------------------------

 NO OUTPUT CONTROL FOR STRESS PERIOD   29   TIME STEP   10
 
 SOLVING FOR HEAD 
                                                   Max.-Head-Change                         Max.-Flux-Residual
  Residual-Control   Outer-Iter.   Inner-Iter.     Column Row Layer    Maximum-Head-Change  Column Row Layer    Maximum-Flux-Residual          L2-NORM 
          0                 1           2             4    7     1       0.6760527442E-02       4    7    1         0.3539469923E+00      0.1140621894E+01
          0                 2           2             4    7     1      -0.6576157764E-03       4    7    1        -0.3539475359E-01      0.1131819875E+00
          0                 3           1             4    7     1       0.4478118890E-04       4    7    1         0.2477633309E-02      0.7841872542E-02

    ------------------------------------------------
       NWT REQUIRED            3 OUTER ITERATIONS 
       AND A TOTAL OF          5 INNER ITERATIONS.
    ------------------------------------------------

 NO OUTPUT CONTROL FOR STRESS PERIOD   29   TIME STEP   11
 
 SOLVING FOR HEAD 
                                                   Max.-Head-Change                         Max.-Flux-Residual
  Residual-Control   Outer-Iter.   Inner-Iter.     Column Row Layer    Maximum-Head-Change  Column Row Layer    Maximum-Flux-Residual          L2-NORM 
          0                 1           2             4    7     1       0.6709529323E-02       4    7    1         0.3512728963E+00      0.1112270400E+01
          0                 2           2             4    7     1      -0.6526550362E-03       4    7    1        -0.3512734306E-01      0.1104505754E+00
          0                 3           1             4    7     1       0.4444338100E-04       4    7    1         0.2458914577E-02      0.7660334376E-02

    ------------------------------------------------
       NWT REQUIRED            3 OUTER ITERATIONS 
       AND A TOTAL OF          5 INNER ITERATIONS.
    ------------------------------------------------

 NO OUTPUT CONTROL FOR STRESS PERIOD   29   TIME STEP   12
 
 SOLVING FOR HEAD 
                                                   Max.-Head-Change                         Max.-Flux-Residual
  Residual-Control   Outer-Iter.   Inner-Iter.     Column Row Layer    Maximum-Head-Change  Column Row Layer    Maximum-Flux-Residual          L2-NORM 
          0                 1           2             4    7     1       0.6658967937E-02       4    7    1         0.3486213201E+00      0.1086865717E+01
          0                 2           2             4    7     1      -0.6477367791E-03       4    7    1        -0.3486218457E-01      0.1080022372E+00
          0                 3           1             4    7     1       0.4410846607E-04       4    7    1         0.2440353468E-02      0.7496757758E-02

    ------------------------------------------------
       NWT REQUIRED            3 OUTER ITERATIONS 
       AND A TOTAL OF          5 INNER ITERATIONS.
    ------------------------------------------------

 NO OUTPUT CONTROL FOR STRESS PERIOD   29   TIME STEP   13
 
 SOLVING FOR HEAD 
                                                   Max.-Head-Change                         Max.-Flux-Residual
  Residual-Control   Outer-Iter.   Inner-Iter.     Column Row Layer    Maximum-Head-Change  Column Row Layer    Maximum-Flux-Residual          L2-NORM 
          0                 1           2             4    7     1       0.6608847216E-02       4    7    1         0.3459923880E+00      0.1064039634E+01
          0                 2           2             4    7     1      -0.6428613867E-03       4    7    1        -0.3459929048E-01      0.1058017907E+00
          0                 3           1             4    7     1       0.4377647016E-04       4    7    1         0.2421950890E-02      0.7348662955E-02

    ------------------------------------------------
       NWT REQUIRED            3 OUTER ITERATIONS 
       AND A TOTAL OF          5 INNER ITERATIONS.
    ------------------------------------------------

 NO OUTPUT CONTROL FOR STRESS PERIOD   29   TIME STEP   14
 
 SOLVING FOR HEAD 
                                                   Max.-Head-Change                         Max.-Flux-Residual
  Residual-Control   Outer-Iter.   Inner-Iter.     Column Row Layer    Maximum-Head-Change  Column Row Layer    Maximum-Flux-Residual          L2-NORM 
          0                 1           2             4    7     1       0.6559303827E-02       4    7    1         0.3433936836E+00      0.1043477899E+01
          0                 2           2             4    7     1      -0.6380421526E-03       4    7    1        -0.3433941914E-01      0.1038178851E+00
          0                 3           1             4    7     1       0.4344829852E-04       4    7    1         0.2403759902E-02      0.7218241180E-02

    ------------------------------------------------
       NWT REQUIRED            3 OUTER ITERATIONS 
       AND A TOTAL OF          5 INNER ITERATIONS.
    ------------------------------------------------

 NO OUTPUT CONTROL FOR STRESS PERIOD   29   TIME STEP   15
 
 SOLVING FOR HEAD 
                                                   Max.-Head-Change                         Max.-Flux-Residual
  Residual-Control   Outer-Iter.   Inner-Iter.     Column Row Layer    Maximum-Head-Change  Column Row Layer    Maximum-Flux-Residual          L2-NORM 
          0                 1           2             4    7     1       0.6510054638E-02       4    7    1         0.3408101536E+00      0.1024862499E+01
          0                 2           2             4    7     1      -0.6332515365E-03       4    7    1        -0.3408106529E-01      0.1020203309E+00
          0                 3           1             4    7     1       0.4312207530E-04       4    7    1         0.2385675117E-02      0.7098675921E-02

    ------------------------------------------------
       NWT REQUIRED            3 OUTER ITERATIONS 
       AND A TOTAL OF          5 INNER ITERATIONS.
    ------------------------------------------------

 NO OUTPUT CONTROL FOR STRESS PERIOD   29   TIME STEP   16
 
 SOLVING FOR HEAD 
                                                   Max.-Head-Change                         Max.-Flux-Residual
  Residual-Control   Outer-Iter.   Inner-Iter.     Column Row Layer    Maximum-Head-Change  Column Row Layer    Maximum-Flux-Residual          L2-NORM 
          0                 1           2             4    7     1       0.6461379472E-02       4    7    1         0.3382566370E+00      0.1007977732E+01
          0                 2           2             4    7     1      -0.6285167575E-03       4    7    1        -0.3382571279E-01      0.1003882159E+00
          0                 3           1             4    7     1       0.4279965436E-04       4    7    1         0.2367800440E-02      0.6989408838E-02

    ------------------------------------------------
       NWT REQUIRED            3 OUTER ITERATIONS 
       AND A TOTAL OF          5 INNER ITERATIONS.
    ------------------------------------------------

 NO OUTPUT CONTROL FOR STRESS PERIOD   29   TIME STEP   17
 
 SOLVING FOR HEAD 
                                                   Max.-Head-Change                         Max.-Flux-Residual
  Residual-Control   Outer-Iter.   Inner-Iter.     Column Row Layer    Maximum-Head-Change  Column Row Layer    Maximum-Flux-Residual          L2-NORM 
          0                 1           2             4    7     1       0.6413267841E-02       4    7    1         0.3357328829E+00      0.9925840036E+00
          0                 2           2             4    7     1      -0.6238383392E-03       4    7    1        -0.3357333656E-01      0.9890006447E-01
          0                 3           1             4    7     1       0.4248107202E-04       4    7    1         0.2350134120E-02      0.6889855080E-02

    ------------------------------------------------
       NWT REQUIRED            3 OUTER ITERATIONS 
       AND A TOTAL OF          5 INNER ITERATIONS.
    ------------------------------------------------

 NO OUTPUT CONTROL FOR STRESS PERIOD   29   TIME STEP   18
 
 SOLVING FOR HEAD 
                                                   Max.-Head-Change                         Max.-Flux-Residual
  Residual-Control   Outer-Iter.   Inner-Iter.     Column Row Layer    Maximum-Head-Change  Column Row Layer    Maximum-Flux-Residual          L2-NORM 
          0                 1           2             4    7     1       0.6365560972E-02       4    7    1         0.3332308854E+00      0.9784867006E+00
          0                 2           2             4    7     1      -0.6191962068E-03       4    7    1        -0.3332313601E-01      0.9753222906E-01
          0                 3           1             4    7     1       0.4216496007E-04       4    7    1         0.2332620079E-02      0.6798174699E-02

    ------------------------------------------------
       NWT REQUIRED            3 OUTER ITERATIONS 
       AND A TOTAL OF          5 INNER ITERATIONS.
    ------------------------------------------------

 NO OUTPUT CONTROL FOR STRESS PERIOD   29   TIME STEP   19
 
 SOLVING FOR HEAD 
                                                   Max.-Head-Change                         Max.-Flux-Residual
  Residual-Control   Outer-Iter.   Inner-Iter.     Column Row Layer    Maximum-Head-Change  Column Row Layer    Maximum-Flux-Residual          L2-NORM 
          0                 1           2             4    7     1       0.6318133170E-02       4    7    1         0.3307426578E+00      0.9655238349E+00
          0                 2           2             4    7     1      -0.6145827631E-03       4    7    1        -0.3307431245E-01      0.9627419147E-01
          0                 3           1             4    7     1       0.4185080210E-04       4    7    1         0.2315202434E-02      0.6713455471E-02

    ------------------------------------------------
       NWT REQUIRED            3 OUTER ITERATIONS 
       AND A TOTAL OF          5 INNER ITERATIONS.
    ------------------------------------------------

 NO OUTPUT CONTROL FOR STRESS PERIOD   29   TIME STEP   20
 
 SOLVING FOR HEAD 
                                                   Max.-Head-Change                         Max.-Flux-Residual
  Residual-Control   Outer-Iter.   Inner-Iter.     Column Row Layer    Maximum-Head-Change  Column Row Layer    Maximum-Flux-Residual          L2-NORM 
          0                 1           2             4    7     1       0.6271261984E-02       4    7    1         0.3282835779E+00      0.9535587646E+00
          0                 2           2             4    7     1      -0.6100234631E-03       4    7    1        -0.3282840367E-01      0.9511092933E-01
          0                 3           1             4    7     1       0.4154033055E-04       4    7    1         0.2297988819E-02      0.6635079653E-02

    ------------------------------------------------
       NWT REQUIRED            3 OUTER ITERATIONS 
       AND A TOTAL OF          5 INNER ITERATIONS.
    ------------------------------------------------

 NO OUTPUT CONTROL FOR STRESS PERIOD   29   TIME STEP   21
 
 SOLVING FOR HEAD 
                                                   Max.-Head-Change                         Max.-Flux-Residual
  Residual-Control   Outer-Iter.   Inner-Iter.     Column Row Layer    Maximum-Head-Change  Column Row Layer    Maximum-Flux-Residual          L2-NORM 
          0                 1           2             4    7     1       0.6224937705E-02       4    7    1         0.3258533581E+00      0.9424599667E+00
          0                 2           2             4    7     1      -0.6055173628E-03       4    7    1        -0.3258538093E-01      0.9403094807E-01
          0                 3           1             4    7     1       0.4123348200E-04       4    7    1         0.2280977236E-02      0.6562533691E-02

    ------------------------------------------------
       NWT REQUIRED            3 OUTER ITERATIONS 
       AND A TOTAL OF          5 INNER ITERATIONS.
    ------------------------------------------------

 NO OUTPUT CONTROL FOR STRESS PERIOD   29   TIME STEP   22
 
 SOLVING FOR HEAD 
                                                   Max.-Head-Change                         Max.-Flux-Residual
  Residual-Control   Outer-Iter.   Inner-Iter.     Column Row Layer    Maximum-Head-Change  Column Row Layer    Maximum-Flux-Residual          L2-NORM 
          0                 1           2             4    7     1       0.6178880823E-02       4    7    1         0.3234367337E+00      0.9321165373E+00
          0                 2           2             4    7     1      -0.6010372723E-03       4    7    1        -0.3234371771E-01      0.9302200310E-01
          0                 3           1             4    7     1       0.4092840495E-04       4    7    1         0.2264060814E-02      0.6494034567E-02

    ------------------------------------------------
       NWT REQUIRED            3 OUTER ITERATIONS 
       AND A TOTAL OF          5 INNER ITERATIONS.
    ------------------------------------------------

 NO OUTPUT CONTROL FOR STRESS PERIOD   29   TIME STEP   23
 
 SOLVING FOR HEAD 
                                                   Max.-Head-Change                         Max.-Flux-Residual
  Residual-Control   Outer-Iter.   Inner-Iter.     Column Row Layer    Maximum-Head-Change  Column Row Layer    Maximum-Flux-Residual          L2-NORM 
          0                 1           2             4    7     1       0.6133365415E-02       4    7    1         0.3210487345E+00      0.9224308185E+00
          0                 2           2             4    7     1      -0.5966098529E-03       4    7    1        -0.3210491706E-01      0.9207556745E-01
          0                 3           1             4    7     1       0.4062691349E-04       4    7    1         0.2247344734E-02      0.6429755938E-02

    ------------------------------------------------
       NWT REQUIRED            3 OUTER ITERATIONS 
       AND A TOTAL OF          5 INNER ITERATIONS.
    ------------------------------------------------

 NO OUTPUT CONTROL FOR STRESS PERIOD   29   TIME STEP   24
 
 SOLVING FOR HEAD 
                                                   Max.-Head-Change                         Max.-Flux-Residual
  Residual-Control   Outer-Iter.   Inner-Iter.     Column Row Layer    Maximum-Head-Change  Column Row Layer    Maximum-Flux-Residual          L2-NORM 
          0                 1           2             4    7     1       0.6088387811E-02       4    7    1         0.3186888101E+00      0.9133456579E+00
          0                 2           2             4    7     1      -0.5922347479E-03       4    7    1        -0.3186892389E-01      0.9118687443E-01
          0                 3           1             4    7     1       0.4032898539E-04       4    7    1         0.2230825229E-02      0.6369494325E-02

    ------------------------------------------------
       NWT REQUIRED            3 OUTER ITERATIONS 
       AND A TOTAL OF          5 INNER ITERATIONS.
    ------------------------------------------------

 NO OUTPUT CONTROL FOR STRESS PERIOD   29   TIME STEP   25
 
 SOLVING FOR HEAD 
                                                   Max.-Head-Change                         Max.-Flux-Residual
  Residual-Control   Outer-Iter.   Inner-Iter.     Column Row Layer    Maximum-Head-Change  Column Row Layer    Maximum-Flux-Residual          L2-NORM 
          0                 1           2             4    7     1       0.6043668442E-02       4    7    1         0.3163420088E+00      0.9047647405E+00
          0                 2           2             4    7     1      -0.5878847618E-03       4    7    1        -0.3163424305E-01      0.9034619782E-01
          0                 3           1             4    7     1       0.4003276749E-04       4    7    1         0.2214397558E-02      0.6312288270E-02

    ------------------------------------------------
       NWT REQUIRED            3 OUTER ITERATIONS 
       AND A TOTAL OF          5 INNER ITERATIONS.
    ------------------------------------------------

 NO OUTPUT CONTROL FOR STRESS PERIOD   29   TIME STEP   26
 
 SOLVING FOR HEAD 
                                                   Max.-Head-Change                         Max.-Flux-Residual
  Residual-Control   Outer-Iter.   Inner-Iter.     Column Row Layer    Maximum-Head-Change  Column Row Layer    Maximum-Flux-Residual          L2-NORM 
          0                 1           2             4    7     1       0.5999483886E-02       4    7    1         0.3140233581E+00      0.8966359255E+00
          0                 2           2             4    7     1      -0.5835867991E-03       4    7    1        -0.3140237727E-01      0.8954839652E-01
          0                 3           1             4    7     1       0.3974009212E-04       4    7    1         0.2198166957E-02      0.6257831006E-02

    ------------------------------------------------
       NWT REQUIRED            3 OUTER ITERATIONS 
       AND A TOTAL OF          5 INNER ITERATIONS.
    ------------------------------------------------

 NO OUTPUT CONTROL FOR STRESS PERIOD   29   TIME STEP   27
 
 SOLVING FOR HEAD 
                                                   Max.-Head-Change                         Max.-Flux-Residual
  Residual-Control   Outer-Iter.   Inner-Iter.     Column Row Layer    Maximum-Head-Change  Column Row Layer    Maximum-Flux-Residual          L2-NORM 
          0                 1           2             4    7     1       0.5955825173E-02       4    7    1         0.3117324370E+00      0.8889093478E+00
          0                 2           2             4    7     1      -0.5793399867E-03       4    7    1        -0.3117328447E-01      0.8878883392E-01
          0                 3           1             4    7     1       0.3945090034E-04       4    7    1         0.2182130469E-02      0.6205783375E-02

    ------------------------------------------------
       NWT REQUIRED            3 OUTER ITERATIONS 
       AND A TOTAL OF          5 INNER ITERATIONS.
    ------------------------------------------------

 NO OUTPUT CONTROL FOR STRESS PERIOD   29   TIME STEP   28
 
 SOLVING FOR HEAD 
                                                   Max.-Head-Change                         Max.-Flux-Residual
  Residual-Control   Outer-Iter.   Inner-Iter.     Column Row Layer    Maximum-Head-Change  Column Row Layer    Maximum-Flux-Residual          L2-NORM 
          0                 1           2             4    7     1       0.5912414153E-02       4    7    1         0.3094540180E+00      0.8815309621E+00
          0                 2           2             4    7     1      -0.5751172680E-03       4    7    1        -0.3094544189E-01      0.8806275483E-01
          0                 3           1             4    7     1       0.3916334894E-04       4    7    1         0.2166181491E-02      0.6156051641E-02

    ------------------------------------------------
       NWT REQUIRED            3 OUTER ITERATIONS 
       AND A TOTAL OF          5 INNER ITERATIONS.
    ------------------------------------------------

 NO OUTPUT CONTROL FOR STRESS PERIOD   29   TIME STEP   29
 
 SOLVING FOR HEAD 
                                                   Max.-Head-Change                         Max.-Flux-Residual
  Residual-Control   Outer-Iter.   Inner-Iter.     Column Row Layer    Maximum-Head-Change  Column Row Layer    Maximum-Flux-Residual          L2-NORM 
          0                 1           2             4    7     1       0.5869653749E-02       4    7    1         0.3072032038E+00      0.9817724247E+00
          0                 2           2             4    7     1      -0.5709578355E-03       4    7    1        -0.3072035973E-01      0.9759355526E-01
          0                 3           1             4    7     1       0.3888010665E-04       4    7    1         0.2150425734E-02      0.6778668905E-02

    ------------------------------------------------
       NWT REQUIRED            3 OUTER ITERATIONS 
       AND A TOTAL OF          5 INNER ITERATIONS.
    ------------------------------------------------

 NO OUTPUT CONTROL FOR STRESS PERIOD   29   TIME STEP   30



 STREAM LISTING     PERIOD     29   STEP       30

 LAYER ROW COL. STREAM  RCH.  FLOW INTO     FLOW TO   FLOW OUT OF   OVRLND.     DIRECT     STREAM       STREAM     STREAM     STREAM   STREAMBED  STREAMBED
                SEG.NO.  NO.  STRM. RCH.    AQUIFER    STRM. RCH.    RUNOFF     PRECIP       ET          HEAD       DEPTH      WIDTH   CONDCTNC.   GRADIENT

   1    1    1     1     1    3.7161E+01  2.9408E-01   3.6867E+01  0.000E+00  0.000E+00  0.000E+00  1.09436E+03  1.310E+00  1.516E+01  6.824E-02  1.437E+00
   1    2    2     1     2    3.6867E+01  4.5538E-01   3.6412E+01  0.000E+00  0.000E+00  0.000E+00  1.08937E+03  1.307E+00  1.511E+01  1.057E-01  1.436E+00
   1    3    3     1     3    3.6412E+01  3.8831E-01   3.6024E+01  0.000E+00  0.000E+00  0.000E+00  1.08372E+03  1.303E+00  1.504E+01  9.023E-02  1.434E+00
   1    3    4     1     4    3.6024E+01  3.5753E-01   3.5666E+01  0.000E+00  0.000E+00  0.000E+00  1.07871E+03  1.300E+00  1.498E+01  8.314E-02  1.433E+00
   1    4    5     2     1    3.3666E+01  3.4626E-01   3.3320E+01  0.000E+00  0.000E+00  0.000E+00  1.07337E+03  1.439E+00  1.200E+01  7.800E-02  1.480E+00
   1    5    6     2     2    3.3320E+01  2.6588E-01   3.3054E+01  0.000E+00  0.000E+00  0.000E+00  1.06794E+03  1.431E+00  1.200E+01  6.000E-02  1.477E+00
   1    6    6     2     3    3.3054E+01  2.6546E-01   3.2789E+01  0.000E+00  0.000E+00  0.000E+00  1.06322E+03  1.424E+00  1.200E+01  6.000E-02  1.475E+00
   1    7    6     2     4    3.2789E+01  2.6505E-01   3.2524E+01  0.000E+00  0.000E+00  0.000E+00  1.05849E+03  1.417E+00  1.200E+01  6.000E-02  1.472E+00
   1    8    6     2     5    3.2524E+01  2.6464E-01   3.2259E+01  0.000E+00  0.000E+00  0.000E+00  1.05377E+03  1.411E+00  1.200E+01  6.000E-02  1.470E+00
   1    3    5     3     1    2.0000E+00  2.8252E-01   1.7175E+00  0.000E+00  0.000E+00  0.000E+00  1.07555E+03  1.909E+00  9.636E+00  7.227E-02  1.955E+00
   1    3    6     3     2    1.7175E+00  2.4905E-01   1.4684E+00  0.000E+00  0.000E+00  0.000E+00  1.07264E+03  1.727E+00  8.909E+00  6.682E-02  1.864E+00
   1    3    7     3     3    1.4684E+00  1.9718E-01   1.2712E+00  0.000E+00  0.000E+00  0.000E+00  1.06987E+03  1.555E+00  8.218E+00  5.547E-02  1.777E+00
   1    4    8     3     4    1.2712E+00  2.2567E-01   1.0456E+00  0.000E+00  0.000E+00  0.000E+00  1.06682E+03  1.364E+00  7.455E+00  6.709E-02  1.682E+00
   1    5    8     3     5    1.0456E+00  1.5790E-01   8.8768E-01  0.000E+00  0.000E+00  0.000E+00  1.06362E+03  1.164E+00  6.655E+00  4.991E-02  1.582E+00
   1    6    8     3     6    8.8768E-01  5.5980E-02   8.3170E-01  0.000E+00  0.000E+00  0.000E+00  1.06158E+03  1.036E+00  6.145E+00  1.844E-02  1.518E+00
   1    5   10     4     1    1.0000E+01  9.0919E-02   9.9091E+00  0.000E+00  0.000E+00  0.000E+00  1.07836E+03  6.368E-01  1.000E+01  2.500E-02  1.212E+00
   1    5    9     4     2    9.9091E+00  1.8158E-01   9.7275E+00  0.000E+00  0.000E+00  0.000E+00  1.07154E+03  6.315E-01  1.000E+01  5.000E-02  1.211E+00
   1    6    8     4     3    9.7275E+00  1.2689E-01   9.6006E+00  0.000E+00  0.000E+00  0.000E+00  1.06381E+03  6.256E-01  1.000E+01  3.500E-02  1.209E+00
   1    6    8     5     1    1.0432E+01  2.2686E-01   1.0205E+01  0.000E+00  0.000E+00  0.000E+00  1.05868E+03  6.790E-01  1.542E+01  6.166E-02  1.226E+00
   1    7    7     5     2    1.0205E+01  2.7894E-01   9.9265E+00  0.000E+00  0.000E+00  0.000E+00  1.05417E+03  6.732E-01  1.519E+01  7.594E-02  1.224E+00
   1    8    7     5     3    9.9265E+00  1.9221E-01   9.7343E+00  0.000E+00  0.000E+00  0.000E+00  1.04992E+03  6.676E-01  1.497E+01  5.241E-02  1.223E+00
   1    8    6     5     4    9.7343E+00  1.3577E-01   9.5985E+00  0.000E+00  0.000E+00  0.000E+00  1.04691E+03  6.637E-01  1.482E+01  3.706E-02  1.221E+00
   1    9    6     6     1    4.1857E+01  2.7961E-01   4.1578E+01  0.000E+00  0.000E+00  0.000E+00  1.04439E+03  1.660E+00  1.200E+01  6.000E-02  1.553E+00
   1   10    7     6     2    4.1578E+01  2.7921E-01   4.1299E+01  0.000E+00  0.000E+00  0.000E+00  1.03984E+03  1.654E+00  1.200E+01  6.000E-02  1.551E+00
   1   11    7     6     3    4.1299E+01  2.7881E-01   4.1020E+01  0.000E+00  0.000E+00  0.000E+00  1.03528E+03  1.647E+00  1.200E+01  6.000E-02  1.549E+00
   1   12    7     6     4    4.1020E+01  2.7841E-01   4.0741E+01  0.000E+00  0.000E+00  0.000E+00  1.03073E+03  1.640E+00  1.200E+01  6.000E-02  1.547E+00
   1   13    7     6     5    4.0741E+01  1.1872E-02   4.0729E+01  0.000E+00  0.000E+00  0.000E+00  1.02755E+03  1.637E+00  1.200E+01  2.400E-02  1.649E-01
   1   14    9     7     1    1.5000E+02  1.3389E+00   1.4866E+02  0.000E+00  0.000E+00  0.000E+00  1.03987E+03  2.288E+00  5.529E+01  5.593E-01  7.980E-01
   1   13    8     7     2    1.4866E+02  1.8408E+00   1.4682E+02  0.000E+00  0.000E+00  0.000E+00  1.03478E+03  2.279E+00  5.526E+01  6.148E-01  9.981E-01
   1   13    7     7     3    1.4682E+02  1.4736E+00   1.4535E+02  0.000E+00  0.000E+00  0.000E+00  1.02969E+03  2.270E+00  5.522E+01  5.584E-01  8.796E-01
   1   13    6     8     1    1.8608E+02  9.9729E-01   1.8508E+02  0.000E+00  0.000E+00  0.000E+00  1.02493E+03  3.051E+00  4.424E+01  4.508E-01  7.374E-01
   1   13    5     8     2    1.8508E+02  2.2300E-01   1.8486E+02  0.000E+00  0.000E+00  0.000E+00  1.01867E+03  3.047E+00  4.418E+01  4.502E-01  1.651E-01
   1   13    4     8     3    1.8486E+02 -2.1357E+00   1.8699E+02  0.000E+00  0.000E+00  0.000E+00  1.01243E+03  3.053E+00  4.427E+01  4.511E+00 -1.578E-01
   1   13    3     8     4    1.8699E+02 -3.4079E+00   1.9040E+02  0.000E+00  0.000E+00  0.000E+00  1.00620E+03  3.070E+00  4.451E+01  4.536E+00 -2.504E-01
   1   13    2     8     5    1.9040E+02 -2.3385E+00   1.9274E+02  0.000E+00  0.000E+00  0.000E+00  9.99962E+02  3.087E+00  4.477E+01  4.562E+00 -1.709E-01
   1   13    1     8     6    1.9274E+02 -1.8901E+00   1.9463E+02  0.000E+00  0.000E+00  0.000E+00  9.94975E+02  3.100E+00  4.495E+01  2.748E+00 -2.292E-01
   1    8    6     9     1    0.0000E+00  0.0000E+00   0.0000E+00  0.000E+00  0.000E+00  0.000E+00  1.07875E+03  0.000E+00  4.000E+00  0.000E+00  1.000E+00
   1    8    5     9     2    0.0000E+00  0.0000E+00   0.0000E+00  0.000E+00  0.000E+00  0.000E+00  1.07825E+03  0.000E+00  4.000E+00  0.000E+00  1.000E+00





UNSATURATED ZONE PACKAGE VOLUMETRIC BUDGET FOR  TIME STEP    30 STRESS PERIOD   29
  ------------------------------------------------------------------------------



     CUMULATIVE VOLUMES      L**3       RATES FOR THIS TIME STEP      L**3/T
     ------------------                 ------------------------

           IN:                                      IN:
           ---                                      ---
        INFILTRATION =  1001644561.8794          INFILTRATION =           0.8475

          OUT:                                     OUT:
          ----                                     ----
              UZF ET =   869564419.9149                UZF ET =           0.8475
        UZF RECHARGE =       73224.0000          UZF RECHARGE =       0.0000E+00

            IN - OUT =   132006917.9644              IN - OUT =       0.0000E+00

          STORAGE:                                 STORAGE:
          --------                                 --------
      STORAGE CHANGE =   132008194.2097        STORAGE CHANGE =       1.7147E-13

 PERCENT DISCREPANCY IS DIFFERENCE BETWEEN IN-OUT MINUS CHANGE IN STORAGE
 DIVIDED BY THE AVERAGE OF IN AND OUT TIMES 100

 PERCENT DISCREPANCY =          -0.00     PERCENT DISCREPANCY =           0.00






1
  VOLUMETRIC BUDGET FOR AGRICULTURAL FIELDS AT  END OF TIME STEP   30, STRESS PERIOD  29
  ------------------------------------------------------------------------------

     CUMULATIVE VOLUMES      L**3       RATES FOR THIS TIME STEP      L**3/T
     ------------------                 ------------------------

           IN:                                      IN:
           ---                                      ---
               AG WELLS  =   328055200.0000                 AG WELLS  =           0.0000
      DIVERSION SEGMENTS =   611151808.0000        DIVERSION SEGMENTS =           0.0000
       IRRIGATION PONDS  =           0.0000         IRRIGATION PONDS  =           0.0000
           GW IRRIGATION =           0.0000             GW IRRIGATION =           0.0000
           SW IRRIGATION =           0.0000             SW IRRIGATION =           0.0000
        SYSTEM LOSSES GW =           0.0000          SYSTEM LOSSES GW =           0.0000
        SYSTEM LOSSES SW =           0.0000          SYSTEM LOSSES SW =           0.0000

                TOTAL IN =   939207040.0000                  TOTAL IN =           0.0000

          OUT:                                     OUT:
          ----                                     ----
               AG WELLS  =           0.0000                 AG WELLS  =           0.0000
      DIVERSION SEGMENTS =           0.0000        DIVERSION SEGMENTS =           0.0000
       IRRIGATION PONDS  =           0.0000         IRRIGATION PONDS  =           0.0000
           GW IRRIGATION =   328055200.0000             GW IRRIGATION =           0.0000
           SW IRRIGATION =   611163648.0000             SW IRRIGATION =           0.0000
        SYSTEM LOSSES GW =           0.0000          SYSTEM LOSSES GW =           0.0000
        SYSTEM LOSSES SW =           0.0000          SYSTEM LOSSES SW =           0.0000

               TOTAL OUT =   939218816.0000                 TOTAL OUT =           0.0000

                IN - OUT =      -11776.0000                  IN - OUT =           0.0000

     PERCENT DISCREPANCY =          -0.00         PERCENT DISCREPANCY =           0.00



1
  VOLUMETRIC BUDGET FOR ENTIRE MODEL AT END OF TIME STEP   30, STRESS PERIOD  29
  ------------------------------------------------------------------------------

     CUMULATIVE VOLUMES      L**3       RATES FOR THIS TIME STEP      L**3/T
     ------------------                 ------------------------

           IN:                                      IN:
           ---                                      ---
             STORAGE     =   579688192.0000               STORAGE     =           2.0882
       CONSTANT HEAD     =           0.0000         CONSTANT HEAD     =           0.0000
     HEAD DEP BOUNDS     =    21069846.0000       HEAD DEP BOUNDS     =           0.2860
      STREAM LEAKAGE     =   875130752.0000        STREAM LEAKAGE     =          12.3056
        UZF RECHARGE     =       73223.9531          UZF RECHARGE     =           0.0000
               GW ET     =           0.0000                 GW ET     =           0.0000
     SURFACE LEAKAGE     =           0.0000       SURFACE LEAKAGE     =           0.0000
           AG WELLS      =           0.0000             AG WELLS      =           0.0000

                TOTAL IN =  1475961984.0000                  TOTAL IN =          14.6798

          OUT:                                     OUT:
          ----                                     ----
             STORAGE     =   327060960.0000               STORAGE     =           4.6171
       CONSTANT HEAD     =           0.0000         CONSTANT HEAD     =           0.0000
     HEAD DEP BOUNDS     =    21430224.0000       HEAD DEP BOUNDS     =           0.2912
      STREAM LEAKAGE     =   797066816.0000        STREAM LEAKAGE     =           9.7722
        UZF RECHARGE     =           0.0000          UZF RECHARGE     =           0.0000
               GW ET     =     2356643.2500                 GW ET     =           0.0000
     SURFACE LEAKAGE     =           0.0000       SURFACE LEAKAGE     =           0.0000
           AG WELLS      =   328055200.0000             AG WELLS      =           0.0000

               TOTAL OUT =  1475969792.0000                 TOTAL OUT =          14.6805

                IN - OUT =       -7808.0000                  IN - OUT =      -7.1812E-04

     PERCENT DISCREPANCY =          -0.00         PERCENT DISCREPANCY =          -0.00






         TIME SUMMARY AT END OF TIME STEP   30 IN STRESS PERIOD   29
                    SECONDS     MINUTES      HOURS       DAYS        YEARS
                    -----------------------------------------------------------
   TIME STEP LENGTH  87667.      1461.1      24.352      1.0147     2.77799E-03
 STRESS PERIOD TIME 2.63000E+06  43833.      730.56      30.440     8.33397E-02
         TOTAL TIME 7.37266E+07 1.22878E+06  20480.      853.32      2.3363    
1
1
                            STRESS PERIOD NO.   30, LENGTH =   2630000.    
                            -----------------------------------------------

                              NUMBER OF TIME STEPS =    30

                               MULTIPLIER FOR DELT =     1.000

                            INITIAL TIME STEP SIZE =   87666.66    

 REUSING NON-PARAMETER GHB CELLS FROM LAST STRESS PERIOD

      2 GHB CELLS

 REUSING STREAM SEGMENT DATA FROM LAST STRESS PERIOD



            AREAL INFILTRATION RATE
 READING ON UNIT   19 WITH FORMAT: (FREE)              

            1           2           3           4           5           6           7           8           9          10
 ........................................................................................................................
   1   1.0000E-10  2.0000E-10   0.000       0.000       0.000       0.000       0.000       0.000       0.000       0.000    
   2   2.0000E-10  1.0000E-10  2.0000E-10   0.000       0.000      8.0000E-10  8.0000E-10  5.0000E-10   0.000       0.000    
   3    0.000      5.0000E-10  1.0000E-10  1.0000E-10  8.0000E-10  8.0000E-10  5.0000E-10  5.0000E-10   0.000       0.000    
   4   8.0000E-10  5.0000E-10  1.0000E-10  1.0000E-10  1.0000E-10  1.0000E-10  1.0000E-10  1.0000E-10  2.0000E-10   0.000    
   5   8.0000E-10  5.0000E-10  1.0000E-10  1.0000E-10  1.0000E-10  1.0000E-10  1.0000E-10  1.0000E-10  1.0000E-10  1.0000E-10
   6   8.0000E-10  5.0000E-10  5.0000E-10  2.0000E-10  2.0000E-10  1.0000E-10  1.0000E-10  1.0000E-10  1.0000E-10  5.0000E-10
   7   8.0000E-10  5.0000E-10  5.0000E-10  2.0000E-10  2.0000E-10  1.0000E-10  1.0000E-10  2.0000E-10  2.0000E-10   0.000    
   8    0.000      5.0000E-10  5.0000E-10  2.0000E-10  2.0000E-10  1.0000E-10  1.0000E-10  2.0000E-10  5.0000E-10   0.000    
   9    0.000      5.0000E-10  5.0000E-10  2.0000E-10  2.0000E-10  1.0000E-10  1.0000E-10  2.0000E-10  5.0000E-10   0.000    
  10    0.000      5.0000E-10  5.0000E-10  2.0000E-10  2.0000E-10  1.0000E-10  1.0000E-10  2.0000E-10  5.0000E-10  8.0000E-10
  11    0.000      1.0000E-10  1.0000E-10  1.0000E-10  1.0000E-10  1.0000E-10  1.0000E-10  2.0000E-10  5.0000E-10   0.000    
  12   1.0000E-10  1.0000E-10  1.0000E-10  1.0000E-10  1.0000E-10  1.0000E-10  1.0000E-10  1.0000E-10  2.0000E-10   0.000    
  13   1.0000E-10  1.0000E-10  2.0000E-10  2.0000E-10  2.0000E-10  2.0000E-10  2.0000E-10  1.0000E-10  1.0000E-10   0.000    
  14    0.000      2.0000E-10  5.0000E-10  5.0000E-10  5.0000E-10  5.0000E-10  5.0000E-10  2.0000E-10  1.0000E-10   0.000    
  15    0.000       0.000      8.0000E-10  8.0000E-10  8.0000E-10  8.0000E-10   0.000       0.000       0.000       0.000    

                  ET RATE =  5.000000E-08

 USING ET EXTINCTION DEPTH FROM PREVIOUS STRESS PERIOD. CURRENT PERIOD IS:      30

 USING EXTINCTION WATER CONTENT FROM PREVIOUS STRESS PERIOD. CURRENT PERIOD IS:      30

 USING AIR ENTRY PRESSURE FROM PREVIOUS STRESS PERIOD. CURRENT PERIOD IS:      30

 USING ROOT PRESSURE HEAD FROM PREVIOUS STRESS PERIOD. CURRENT PERIOD IS:      30

 USING ROOT ACTIVITY FROM PREVIOUS STRESS PERIOD. CURRENT PERIOD IS:      30

 PROCESSING AG STRESS PERIOD DATA

 READING AG STRESS PERIOD DATA

 READING IRRIGATION SEGMENT

 READING IRRIGATION WELL

 READING SUPPLEMENTAL WELL

 NO IRRPOND OR REUSING IRRPOND DATA FROM LAST STRESS PERIOD

 END PROCESSING AG STRESS PERIOD DATA OPTIONS
 
 SOLVING FOR HEAD 
                                                   Max.-Head-Change                         Max.-Flux-Residual
  Residual-Control   Outer-Iter.   Inner-Iter.     Column Row Layer    Maximum-Head-Change  Column Row Layer    Maximum-Flux-Residual          L2-NORM 
          0                 1           2             4   13     1       0.1611618780E-01       4   13    1         0.9305638429E+00      0.1850957017E+01
          0                 2           2             4    7     1      -0.2374876238E-01       4    7    1        -0.1275498656E+01      0.3146069115E+01
          0                 3           2             4    7     1       0.2416874841E-01       4    7    1         0.1334284374E+01      0.3267494559E+01
          0                 4           2             4    7     1      -0.9618227767E-03       4    6    1        -0.5504654615E-01      0.1338474467E+00
          0                 5           1             4    7     1       0.1186512713E-04       4    6    1         0.6979777991E-03      0.1697057937E-02

    ------------------------------------------------
       NWT REQUIRED            5 OUTER ITERATIONS 
       AND A TOTAL OF          9 INNER ITERATIONS.
    ------------------------------------------------

 NO OUTPUT CONTROL FOR STRESS PERIOD   30   TIME STEP    1
 
 SOLVING FOR HEAD 
                                                   Max.-Head-Change                         Max.-Flux-Residual
  Residual-Control   Outer-Iter.   Inner-Iter.     Column Row Layer    Maximum-Head-Change  Column Row Layer    Maximum-Flux-Residual          L2-NORM 
          0                 1           2             4   13     1       0.1787062918E-01       4   13    1         0.1032253250E+01      0.2019936157E+01
          0                 2           2             4   13     1      -0.1719751978E-02       4   13    1        -0.1021396864E+00      0.1971478302E+00
          0                 3           1             4   13     1       0.1153736235E-03       4   13    1         0.7045450865E-02      0.1335092216E-01
          0                 4           1             4   13     1      -0.4487904117E-05       4   13    1        -0.2818107514E-03      0.5183469813E-03

    ------------------------------------------------
       NWT REQUIRED            4 OUTER ITERATIONS 
       AND A TOTAL OF          6 INNER ITERATIONS.
    ------------------------------------------------

 NO OUTPUT CONTROL FOR STRESS PERIOD   30   TIME STEP    2
 
 SOLVING FOR HEAD 
                                                   Max.-Head-Change                         Max.-Flux-Residual
  Residual-Control   Outer-Iter.   Inner-Iter.     Column Row Layer    Maximum-Head-Change  Column Row Layer    Maximum-Flux-Residual          L2-NORM 
          0                 1           2             4   13     1       0.1609028094E-01       4   13    1         0.9289356288E+00      0.1888884096E+01
          0                 2           2             4    7     1      -0.2374080792E-01       4    7    1        -0.1275066877E+01      0.3146148764E+01
          0                 3           2             4    7     1       0.2416821208E-01       4    7    1         0.1334254071E+01      0.3267478555E+01
          0                 4           2             4    7     1      -0.9618129396E-03       4    6    1        -0.5510842446E-01      0.1338715068E+00
          0                 5           1             4    7     1       0.1186364316E-04       4    6    1         0.6986996827E-03      0.1697183469E-02

    ------------------------------------------------
       NWT REQUIRED            5 OUTER ITERATIONS 
       AND A TOTAL OF          9 INNER ITERATIONS.
    ------------------------------------------------

 NO OUTPUT CONTROL FOR STRESS PERIOD   30   TIME STEP    3
 
 SOLVING FOR HEAD 
                                                   Max.-Head-Change                         Max.-Flux-Residual
  Residual-Control   Outer-Iter.   Inner-Iter.     Column Row Layer    Maximum-Head-Change  Column Row Layer    Maximum-Flux-Residual          L2-NORM 
          0                 1           2             4   13     1       0.1479436177E-01       4   13    1         0.8537548904E+00      0.1792992695E+01
          0                 2           2             4   13     1      -0.1423653883E-02       4   13    1        -0.8447326352E-01      0.1753341405E+00
          0                 3           2             4    7     1      -0.2314322977E-01       5    6    1        -0.1243489412E+01      0.3059230955E+01
          0                 4           2             4    7     1       0.2412795384E-01       5    6    1         0.1332056269E+01      0.3262791504E+01
          0                 5           2             4    7     1      -0.9604484041E-03       4    6    1        -0.5507428127E-01      0.1337247028E+00
          0                 6           1             4    7     1       0.1185833529E-04       4    6    1         0.6989611238E-03      0.1697023854E-02

    ------------------------------------------------
       NWT REQUIRED            6 OUTER ITERATIONS 
       AND A TOTAL OF         11 INNER ITERATIONS.
    ------------------------------------------------

 NO OUTPUT CONTROL FOR STRESS PERIOD   30   TIME STEP    4
 
 SOLVING FOR HEAD 
                                                   Max.-Head-Change                         Max.-Flux-Residual
  Residual-Control   Outer-Iter.   Inner-Iter.     Column Row Layer    Maximum-Head-Change  Column Row Layer    Maximum-Flux-Residual          L2-NORM 
          0                 1           2             2   13     1       0.1375578583E-01       4   13    1         0.7863376880E+00      0.1707010799E+01
          0                 2           2             3   13     1      -0.1343024785E-02       3   13    1        -0.8182017506E-01      0.1723572191E+00
          0                 3           2             4    7     1      -0.2314348790E-01       5    6    1        -0.1243492869E+01      0.3059187835E+01
          0                 4           2             4    7     1       0.2412797025E-01       5    6    1         0.1332056272E+01      0.3262803921E+01
          0                 5           2             4    7     1      -0.9604558653E-03       4    6    1        -0.5510430619E-01      0.1337372226E+00
          0                 6           1             4    7     1       0.1185842759E-04       4    6    1         0.6993500647E-03      0.1697195527E-02

    ------------------------------------------------
       NWT REQUIRED            6 OUTER ITERATIONS 
       AND A TOTAL OF         11 INNER ITERATIONS.
    ------------------------------------------------

 NO OUTPUT CONTROL FOR STRESS PERIOD   30   TIME STEP    5
 
 SOLVING FOR HEAD 
                                                   Max.-Head-Change                         Max.-Flux-Residual
  Residual-Control   Outer-Iter.   Inner-Iter.     Column Row Layer    Maximum-Head-Change  Column Row Layer    Maximum-Flux-Residual          L2-NORM 
          0                 1           2             2   13     1       0.1288650790E-01       2   13    1         0.7298802545E+00      0.1628843846E+01
          0                 2           2             4   13     1      -0.1210848058E-02       4   13    1        -0.7181130292E-01      0.1596147746E+00
          0                 3           2             4    7     1      -0.2314374254E-01       5    6    1        -0.1243496450E+01      0.3059224078E+01
          0                 4           2             4    7     1       0.2412798632E-01       5    6    1         0.1332056284E+01      0.3262816398E+01
          0                 5           2             4    7     1      -0.9604631843E-03       4    6    1        -0.5513376024E-01      0.1337495410E+00
          0                 6           1             4    7     1       0.1185851787E-04       4    6    1         0.6997316068E-03      0.1697365342E-02

    ------------------------------------------------
       NWT REQUIRED            6 OUTER ITERATIONS 
       AND A TOTAL OF         11 INNER ITERATIONS.
    ------------------------------------------------

 NO OUTPUT CONTROL FOR STRESS PERIOD   30   TIME STEP    6
 
 SOLVING FOR HEAD 
                                                   Max.-Head-Change                         Max.-Flux-Residual
  Residual-Control   Outer-Iter.   Inner-Iter.     Column Row Layer    Maximum-Head-Change  Column Row Layer    Maximum-Flux-Residual          L2-NORM 
          0                 1           2             2   13     1       0.1208453354E-01       2   13    1         0.6845423711E+00      0.1552557440E+01
          0                 2           2             2   13     1      -0.1122161575E-02       4   13    1        -0.6642093725E-01      0.1522979509E+00
          0                 3           2             4    7     1      -0.2314399480E-01       5    6    1        -0.1243500298E+01      0.3059230415E+01
          0                 4           2             4    7     1       0.2412800430E-01       5    6    1         0.1332056435E+01      0.3262828828E+01
          0                 5           2             4    7     1      -0.9604676541E-03       4    6    1        -0.5516251056E-01      0.1337612476E+00
          0                 6           1             4    7     1       0.1185584786E-04       4    6    1         0.6999451252E-03      0.1697138653E-02

    ------------------------------------------------
       NWT REQUIRED            6 OUTER ITERATIONS 
       AND A TOTAL OF         11 INNER ITERATIONS.
    ------------------------------------------------

 NO OUTPUT CONTROL FOR STRESS PERIOD   30   TIME STEP    7
 
 SOLVING FOR HEAD 
                                                   Max.-Head-Change                         Max.-Flux-Residual
  Residual-Control   Outer-Iter.   Inner-Iter.     Column Row Layer    Maximum-Head-Change  Column Row Layer    Maximum-Flux-Residual          L2-NORM 
          0                 1           2             2   13     1       0.1134412377E-01       2   13    1         0.6426651602E+00      0.1485284282E+01
          0                 2           2             2   13     1      -0.1054232448E-02       4   13    1        -0.6156647814E-01      0.1458493587E+00
          0                 3           2             4    7     1      -0.2314424067E-01       5    6    1        -0.1243504304E+01      0.3059237601E+01
          0                 4           2             4    7     1       0.2412801961E-01       5    6    1         0.1332056477E+01      0.3262840743E+01
          0                 5           2             4    7     1      -0.9604746995E-03       4    6    1        -0.5519089151E-01      0.1337731225E+00
          0                 6           1             4    7     1       0.1185593479E-04       4    6    1         0.7003127735E-03      0.1697306064E-02

    ------------------------------------------------
       NWT REQUIRED            6 OUTER ITERATIONS 
       AND A TOTAL OF         11 INNER ITERATIONS.
    ------------------------------------------------

 NO OUTPUT CONTROL FOR STRESS PERIOD   30   TIME STEP    8
 
 SOLVING FOR HEAD 
                                                   Max.-Head-Change                         Max.-Flux-Residual
  Residual-Control   Outer-Iter.   Inner-Iter.     Column Row Layer    Maximum-Head-Change  Column Row Layer    Maximum-Flux-Residual          L2-NORM 
          0                 1           2             2   13     1       0.1066095314E-01       2   13    1         0.6040088724E+00      0.1425875391E+01
          0                 2           2             2   13     1      -0.9914813168E-03       2   13    1        -0.5774496615E-01      0.1401603747E+00
          0                 3           2             4    7     1      -0.2314448406E-01       5    6    1        -0.1243508326E+01      0.3059245550E+01
          0                 4           2             4    7     1       0.2412803466E-01       5    6    1         0.1332056520E+01      0.3262852457E+01
          0                 5           2             4    7     1      -0.9604844180E-03       4    6    1        -0.5521891166E-01      0.1337851848E+00
          0                 6           1             4    7     1       0.1185877954E-04       4    6    1         0.7008346579E-03      0.1697865002E-02

    ------------------------------------------------
       NWT REQUIRED            6 OUTER ITERATIONS 
       AND A TOTAL OF         11 INNER ITERATIONS.
    ------------------------------------------------

 NO OUTPUT CONTROL FOR STRESS PERIOD   30   TIME STEP    9
 
 SOLVING FOR HEAD 
                                                   Max.-Head-Change                         Max.-Flux-Residual
  Residual-Control   Outer-Iter.   Inner-Iter.     Column Row Layer    Maximum-Head-Change  Column Row Layer    Maximum-Flux-Residual          L2-NORM 
          0                 1           2             2   13     1       0.1003095607E-01       2   13    1         0.5683476721E+00      0.1373325430E+01
          0                 2           2             2   13     1      -0.9334657616E-03       4   13    1        -0.5655066007E-01      0.1364553438E+00
          0                 3           2             4    7     1      -0.2314472604E-01       5    6    1        -0.1243512746E+01      0.3059242681E+01
          0                 4           2             4    7     1       0.2412805170E-01       5    6    1         0.1332056710E+01      0.3262848971E+01
          0                 5           2             4    7     1      -0.9604913010E-03       4    6    1        -0.5524627696E-01      0.1337961351E+00
          0                 6           1             4    7     1       0.1185886445E-04       4    6    1         0.7011891507E-03      0.1698019128E-02

    ------------------------------------------------
       NWT REQUIRED            6 OUTER ITERATIONS 
       AND A TOTAL OF         11 INNER ITERATIONS.
    ------------------------------------------------

 NO OUTPUT CONTROL FOR STRESS PERIOD   30   TIME STEP   10
 
 SOLVING FOR HEAD 
                                                   Max.-Head-Change                         Max.-Flux-Residual
  Residual-Control   Outer-Iter.   Inner-Iter.     Column Row Layer    Maximum-Head-Change  Column Row Layer    Maximum-Flux-Residual          L2-NORM 
          0                 1           2             2   13     1       0.9450238720E-02       2   13    1         0.5354645920E+00      0.1326752538E+01
          0                 2           2             4   13     1      -0.1067770527E-02       4   13    1        -0.6590847028E-01      0.1376424192E+00
          0                 3           2             4    7     1      -0.2314496052E-01       5    6    1        -0.1243516988E+01      0.3059206929E+01
          0                 4           2             4    7     1       0.2412806600E-01       5    6    1         0.1332056769E+01      0.3262875464E+01
          0                 5           2             4    7     1      -0.9604979688E-03       4    6    1        -0.5527316901E-01      0.1338079540E+00
          0                 6           1             4    7     1       0.1185894690E-04       4    6    1         0.7015375127E-03      0.1698179557E-02

    ------------------------------------------------
       NWT REQUIRED            6 OUTER ITERATIONS 
       AND A TOTAL OF         11 INNER ITERATIONS.
    ------------------------------------------------

 NO OUTPUT CONTROL FOR STRESS PERIOD   30   TIME STEP   11
 
 SOLVING FOR HEAD 
                                                   Max.-Head-Change                         Max.-Flux-Residual
  Residual-Control   Outer-Iter.   Inner-Iter.     Column Row Layer    Maximum-Head-Change  Column Row Layer    Maximum-Flux-Residual          L2-NORM 
          0                 1           2             2   13     1       0.8915026984E-02       2   13    1         0.5051512751E+00      0.1283004750E+01
          0                 2           2             2   13     1      -0.8311937567E-03       2   13    1        -0.4841570457E-01      0.1265163766E+00
          0                 3           2             4    7     1      -0.2314519346E-01       5    6    1        -0.1243521497E+01      0.3059278126E+01
          0                 4           2             4    7     1       0.2412789230E-01       5    6    1         0.1332056846E+01      0.3262879661E+01
          0                 5           2             4    7     1      -0.9603143298E-03       5    8    1        -0.5449549642E-01      0.1334858872E+00
          0                 6           1             4    7     1       0.1185668059E-04       5    8    1         0.6915340709E-03      0.1693896927E-02

    ------------------------------------------------
       NWT REQUIRED            6 OUTER ITERATIONS 
       AND A TOTAL OF         11 INNER ITERATIONS.
    ------------------------------------------------

 NO OUTPUT CONTROL FOR STRESS PERIOD   30   TIME STEP   12
 
 SOLVING FOR HEAD 
                                                   Max.-Head-Change                         Max.-Flux-Residual
  Residual-Control   Outer-Iter.   Inner-Iter.     Column Row Layer    Maximum-Head-Change  Column Row Layer    Maximum-Flux-Residual          L2-NORM 
          0                 1           2             2   13     1       0.8421854747E-02       2   13    1         0.4772107882E+00      0.1242982660E+01
          0                 2           2             2   13     1      -0.7858218011E-03       2   13    1        -0.4577328958E-01      0.1226853691E+00
          0                 3           2             4    7     1      -0.2314542290E-01       5    6    1        -0.1243526230E+01      0.3059293984E+01
          0                 4           2             4    7     1       0.2412790223E-01       5    6    1         0.1332057058E+01      0.3262880804E+01
          0                 5           2             4    7     1      -0.9603119237E-03       5    8    1        -0.5449534864E-01      0.1334855368E+00
          0                 6           1             4    7     1       0.1185392522E-04       5    8    1         0.6913732432E-03      0.1693500835E-02

    ------------------------------------------------
       NWT REQUIRED            6 OUTER ITERATIONS 
       AND A TOTAL OF         11 INNER ITERATIONS.
    ------------------------------------------------

 NO OUTPUT CONTROL FOR STRESS PERIOD   30   TIME STEP   13
 
 SOLVING FOR HEAD 
                                                   Max.-Head-Change                         Max.-Flux-Residual
  Residual-Control   Outer-Iter.   Inner-Iter.     Column Row Layer    Maximum-Head-Change  Column Row Layer    Maximum-Flux-Residual          L2-NORM 
          0                 1           2             2   13     1       0.7967622912E-02       2   13    1         0.4514704159E+00      0.1207912251E+01
          0                 2           2             2   13     1      -0.7439000599E-03       2   13    1        -0.4333118929E-01      0.1193273192E+00
          0                 3           2             4    7     1      -0.2314564855E-01       5    6    1        -0.1243530962E+01      0.3059309771E+01
          0                 4           2             4    7     1       0.2412790976E-01       5    6    1         0.1332057151E+01      0.3262881629E+01
          0                 5           2             4    7     1      -0.9603150245E-03       5    8    1        -0.5449551391E-01      0.1334859671E+00
          0                 6           1             4    7     1       0.1185668910E-04       5    8    1         0.6915342988E-03      0.1693897621E-02

    ------------------------------------------------
       NWT REQUIRED            6 OUTER ITERATIONS 
       AND A TOTAL OF         11 INNER ITERATIONS.
    ------------------------------------------------

 NO OUTPUT CONTROL FOR STRESS PERIOD   30   TIME STEP   14
 
 SOLVING FOR HEAD 
                                                   Max.-Head-Change                         Max.-Flux-Residual
  Residual-Control   Outer-Iter.   Inner-Iter.     Column Row Layer    Maximum-Head-Change  Column Row Layer    Maximum-Flux-Residual          L2-NORM 
          0                 1           2             2   13     1       0.7549404417E-02       2   13    1         0.4277659325E+00      0.1177028425E+01
          0                 2           2             2   13     1      -0.7052330227E-03       2   13    1        -0.4107820335E-01      0.1163700806E+00
          0                 3           2             4    7     1      -0.2314587181E-01       5    6    1        -0.1243535753E+01      0.3059325563E+01
          0                 4           2             4    7     1       0.2412791715E-01       5    6    1         0.1332057248E+01      0.3262882456E+01
          0                 5           2             4    7     1      -0.9603153190E-03       5    8    1        -0.5449552041E-01      0.1334860038E+00
          0                 6           1             4    7     1       0.1185669269E-04       5    8    1         0.6915343724E-03      0.1693896161E-02

    ------------------------------------------------
       NWT REQUIRED            6 OUTER ITERATIONS 
       AND A TOTAL OF         11 INNER ITERATIONS.
    ------------------------------------------------

 NO OUTPUT CONTROL FOR STRESS PERIOD   30   TIME STEP   15
 
 SOLVING FOR HEAD 
                                                   Max.-Head-Change                         Max.-Flux-Residual
  Residual-Control   Outer-Iter.   Inner-Iter.     Column Row Layer    Maximum-Head-Change  Column Row Layer    Maximum-Flux-Residual          L2-NORM 
          0                 1           2             2   13     1       0.7164519109E-02       2   13    1         0.4059467523E+00      0.1149720749E+01
          0                 2           2             2   13     1      -0.6695522744E-03       2   13    1        -0.3899881580E-01      0.1137534482E+00
          0                 3           2             4    7     1      -0.2314609215E-01       5    6    1        -0.1243540767E+01      0.3059342027E+01
          0                 4           2             4    7     1       0.2412792655E-01       5    6    1         0.1332057480E+01      0.3262883598E+01
          0                 5           2             4    7     1      -0.9603156932E-03       5    8    1        -0.5449553243E-01      0.1334860465E+00
          0                 6           1             4    7     1       0.1185669717E-04       5    8    1         0.6915345116E-03      0.1693892241E-02

    ------------------------------------------------
       NWT REQUIRED            6 OUTER ITERATIONS 
       AND A TOTAL OF         11 INNER ITERATIONS.
    ------------------------------------------------

 NO OUTPUT CONTROL FOR STRESS PERIOD   30   TIME STEP   16
 
 SOLVING FOR HEAD 
                                                   Max.-Head-Change                         Max.-Flux-Residual
  Residual-Control   Outer-Iter.   Inner-Iter.     Column Row Layer    Maximum-Head-Change  Column Row Layer    Maximum-Flux-Residual          L2-NORM 
          0                 1           2             2   13     1       0.6810416442E-02       2   13    1         0.3858693481E+00      0.1125449005E+01
          0                 2           2             2   13     1      -0.6366763494E-03       2   13    1        -0.3708255804E-01      0.1114268059E+00
          0                 3           2             4    7     1      -0.2314631092E-01       5    6    1        -0.1243545977E+01      0.3059358435E+01
          0                 4           2             4    7     1       0.2412793586E-01       5    6    1         0.1332057725E+01      0.3262884712E+01
          0                 5           2             4    7     1      -0.9603160639E-03       5    8    1        -0.5449554482E-01      0.1334860910E+00
          0                 6           1             4    7     1       0.1185533931E-04       5    8    1         0.6914552068E-03      0.1693702009E-02

    ------------------------------------------------
       NWT REQUIRED            6 OUTER ITERATIONS 
       AND A TOTAL OF         11 INNER ITERATIONS.
    ------------------------------------------------

 NO OUTPUT CONTROL FOR STRESS PERIOD   30   TIME STEP   17
 
 SOLVING FOR HEAD 
                                                   Max.-Head-Change                         Max.-Flux-Residual
  Residual-Control   Outer-Iter.   Inner-Iter.     Column Row Layer    Maximum-Head-Change  Column Row Layer    Maximum-Flux-Residual          L2-NORM 
          0                 1           2             2   13     1       0.6484730838E-02       2   13    1         0.3674005124E+00      0.1103780720E+01
          0                 2           2             2   13     1      -0.6063623957E-03       2   13    1        -0.3531535785E-01      0.1093474809E+00
          0                 3           2             4    7     1      -0.2314652186E-01       5    6    1        -0.1243550899E+01      0.3059374140E+01
          0                 4           2             4    7     1       0.2412794036E-01       5    6    1         0.1332057712E+01      0.3262885198E+01
          0                 5           2             4    7     1      -0.9603162428E-03       5    8    1        -0.5449554700E-01      0.1334861059E+00
          0                 6           1             4    7     1       0.1185670434E-04       5    8    1         0.6915347049E-03      0.1693893212E-02

    ------------------------------------------------
       NWT REQUIRED            6 OUTER ITERATIONS 
       AND A TOTAL OF         11 INNER ITERATIONS.
    ------------------------------------------------

 NO OUTPUT CONTROL FOR STRESS PERIOD   30   TIME STEP   18
 
 SOLVING FOR HEAD 
                                                   Max.-Head-Change                         Max.-Flux-Residual
  Residual-Control   Outer-Iter.   Inner-Iter.     Column Row Layer    Maximum-Head-Change  Column Row Layer    Maximum-Flux-Residual          L2-NORM 
          0                 1           2             2   13     1       0.6185297313E-02       2   13    1         0.3504182772E+00      0.1084345169E+01
          0                 2           2             2   13     1      -0.5784798727E-03       2   13    1        -0.3368970098E-01      0.1074823387E+00
          0                 3           2             4    7     1      -0.2314673398E-01       5    6    1        -0.1243556244E+01      0.3059390689E+01
          0                 4           2             4    7     1       0.2412794929E-01       5    6    1         0.1332057967E+01      0.3262886316E+01
          0                 5           2             4    7     1      -0.9603095958E-03       5    8    1        -0.5449516253E-01      0.1334851786E+00
          0                 6           1             4    7     1       0.1184708352E-04       5    8    1         0.6909735225E-03      0.1692524708E-02

    ------------------------------------------------
       NWT REQUIRED            6 OUTER ITERATIONS 
       AND A TOTAL OF         11 INNER ITERATIONS.
    ------------------------------------------------

 NO OUTPUT CONTROL FOR STRESS PERIOD   30   TIME STEP   19
 
 SOLVING FOR HEAD 
                                                   Max.-Head-Change                         Max.-Flux-Residual
  Residual-Control   Outer-Iter.   Inner-Iter.     Column Row Layer    Maximum-Head-Change  Column Row Layer    Maximum-Flux-Residual          L2-NORM 
          0                 1           2             2   13     1       0.5910006601E-02       2   13    1         0.3348036667E+00      0.1066840350E+01
          0                 2           2             2   13     1      -0.5527946614E-03       2   13    1        -0.3219199693E-01      0.1057996171E+00
          0                 3           2             4    7     1      -0.2314694071E-01       5    6    1        -0.1243561408E+01      0.3059406959E+01
          0                 4           2             4    7     1       0.2412795573E-01       5    6    1         0.1332058090E+01      0.3262887100E+01
          0                 5           2             4    7     1      -0.9603140535E-03       5    8    1        -0.5449540863E-01      0.1334858002E+00
          0                 6           1             4    7     1       0.1185395188E-04       5    8    1         0.6913740071E-03      0.1693506022E-02

    ------------------------------------------------
       NWT REQUIRED            6 OUTER ITERATIONS 
       AND A TOTAL OF         11 INNER ITERATIONS.
    ------------------------------------------------

 NO OUTPUT CONTROL FOR STRESS PERIOD   30   TIME STEP   20
 
 SOLVING FOR HEAD 
                                                   Max.-Head-Change                         Max.-Flux-Residual
  Residual-Control   Outer-Iter.   Inner-Iter.     Column Row Layer    Maximum-Head-Change  Column Row Layer    Maximum-Flux-Residual          L2-NORM 
          0                 1           2             2   13     1       0.5657038782E-02       2   13    1         0.3204540142E+00      0.1050985256E+01
          0                 2           2             2   13     1      -0.5291352854E-03       2   13    1        -0.3081229180E-01      0.1042735097E+00
          0                 3           2             4    7     1      -0.2314714844E-01       5    6    1        -0.1243566864E+01      0.3059423805E+01
          0                 4           2             4    7     1       0.2412784205E-01       5    6    1         0.1332051598E+01      0.3262871649E+01
          0                 5           2             4    7     1      -0.9601862842E-03       5    8    1        -0.5448815184E-01      0.1334680360E+00
          0                 6           1             4    7     1       0.1184419933E-04       5    8    1         0.6908051182E-03      0.1692111985E-02

    ------------------------------------------------
       NWT REQUIRED            6 OUTER ITERATIONS 
       AND A TOTAL OF         11 INNER ITERATIONS.
    ------------------------------------------------

 NO OUTPUT CONTROL FOR STRESS PERIOD   30   TIME STEP   21
 
 SOLVING FOR HEAD 
                                                   Max.-Head-Change                         Max.-Flux-Residual
  Residual-Control   Outer-Iter.   Inner-Iter.     Column Row Layer    Maximum-Head-Change  Column Row Layer    Maximum-Flux-Residual          L2-NORM 
          0                 1           2             2   13     1       0.5424535130E-02       2   13    1         0.3072643005E+00      0.1036569115E+01
          0                 2           2             2   13     1      -0.5073385860E-03       2   13    1        -0.2954110834E-01      0.1028838821E+00
          0                 3           2             4    7     1      -0.2314735087E-01       5    6    1        -0.1243572246E+01      0.3059440197E+01
          0                 4           2             4    7     1       0.2412797061E-01       5    6    1         0.1332058492E+01      0.3262888979E+01
          0                 5           2             4    7     1      -0.9603174466E-03       5    8    1        -0.5449558882E-01      0.1334862683E+00
          0                 6           1             4    7     1       0.1185671890E-04       5    8    1         0.6915352337E-03      0.1693900668E-02

    ------------------------------------------------
       NWT REQUIRED            6 OUTER ITERATIONS 
       AND A TOTAL OF         11 INNER ITERATIONS.
    ------------------------------------------------

 NO OUTPUT CONTROL FOR STRESS PERIOD   30   TIME STEP   22
 
 SOLVING FOR HEAD 
                                                   Max.-Head-Change                         Max.-Flux-Residual
  Residual-Control   Outer-Iter.   Inner-Iter.     Column Row Layer    Maximum-Head-Change  Column Row Layer    Maximum-Flux-Residual          L2-NORM 
          0                 1           2             2   13     1       0.5211052067E-02       2   13    1         0.2951530216E+00      0.1023408083E+01
          0                 2           2             4    7     1      -0.4913068090E-03       2   13    1        -0.2837534097E-01      0.1016147422E+00
          0                 3           2             4    7     1      -0.2314755036E-01       5    6    1        -0.1243577664E+01      0.3059456738E+01
          0                 4           2             4    7     1       0.2412783412E-01       5    6    1         0.1332050765E+01      0.3262870469E+01
          0                 5           2             4    7     1      -0.9601663612E-03       5    8    1        -0.5448700989E-01      0.1334652579E+00
          0                 6           1             4    7     1       0.1184395379E-04       5    8    1         0.6907906609E-03      0.1692072995E-02

    ------------------------------------------------
       NWT REQUIRED            6 OUTER ITERATIONS 
       AND A TOTAL OF         11 INNER ITERATIONS.
    ------------------------------------------------

 NO OUTPUT CONTROL FOR STRESS PERIOD   30   TIME STEP   23
 
 SOLVING FOR HEAD 
                                                   Max.-Head-Change                         Max.-Flux-Residual
  Residual-Control   Outer-Iter.   Inner-Iter.     Column Row Layer    Maximum-Head-Change  Column Row Layer    Maximum-Flux-Residual          L2-NORM 
          0                 1           2             4    7     1       0.5020526452E-02       2   13    1         0.2840238854E+00      0.1011348999E+01
          0                 2           2             4    7     1      -0.4883613862E-03       2   13    1        -0.2730214707E-01      0.1004499841E+00
          0                 3           2             4    7     1      -0.2314774878E-01       5    6    1        -0.1243583119E+01      0.3059473221E+01
          0                 4           2             4    7     1       0.2412798260E-01       5    6    1         0.1332058776E+01      0.3262890516E+01
          0                 5           2             4    7     1      -0.9603179242E-03       5    8    1        -0.5449560533E-01      0.1334863304E+00
          0                 6           1             4    7     1       0.1185672495E-04       5    8    1         0.6915354393E-03      0.1693901550E-02

    ------------------------------------------------
       NWT REQUIRED            6 OUTER ITERATIONS 
       AND A TOTAL OF         11 INNER ITERATIONS.
    ------------------------------------------------

 NO OUTPUT CONTROL FOR STRESS PERIOD   30   TIME STEP   24
 
 SOLVING FOR HEAD 
                                                   Max.-Head-Change                         Max.-Flux-Residual
  Residual-Control   Outer-Iter.   Inner-Iter.     Column Row Layer    Maximum-Head-Change  Column Row Layer    Maximum-Flux-Residual          L2-NORM 
          0                 1           2             4    7     1       0.4990943005E-02       2   13    1         0.2738012455E+00      0.1000243630E+01
          0                 2           2             4    7     1      -0.4854831648E-03       2   13    1        -0.2631484452E-01      0.9937560965E-01
          0                 3           2             4    7     1      -0.2314794532E-01       5    6    1        -0.1243588752E+01      0.3059490112E+01
          0                 4           2             4    7     1       0.2412783229E-01       5    6    1         0.1332050309E+01      0.3262870166E+01
          0                 5           2             4    7     1      -0.9601508831E-03       5    8    1        -0.5448612202E-01      0.1334631111E+00
          0                 6           1             4    7     1       0.1184103713E-04       5    8    1         0.6906204549E-03      0.1691657851E-02

    ------------------------------------------------
       NWT REQUIRED            6 OUTER ITERATIONS 
       AND A TOTAL OF         11 INNER ITERATIONS.
    ------------------------------------------------

 NO OUTPUT CONTROL FOR STRESS PERIOD   30   TIME STEP   25
 
 SOLVING FOR HEAD 
                                                   Max.-Head-Change                         Max.-Flux-Residual
  Residual-Control   Outer-Iter.   Inner-Iter.     Column Row Layer    Maximum-Head-Change  Column Row Layer    Maximum-Flux-Residual          L2-NORM 
          0                 1           2             4    7     1       0.4961491176E-02       2   13    1         0.2644163849E+00      0.9899966058E+00
          0                 2           2             4    7     1      -0.4826188522E-03       4    7    1        -0.2593239356E-01      0.9838417068E-01
          0                 3           2             4    7     1      -0.2314813536E-01       5    6    1        -0.1243594108E+01      0.3059506282E+01
          0                 4           2             4    7     1       0.2412782552E-01       5    6    1         0.1332049770E+01      0.3262869235E+01
          0                 5           2             4    7     1      -0.9601408095E-03       5    8    1        -0.5448554607E-01      0.1334617092E+00
          0                 6           1             4    7     1       0.1184772604E-04       5    8    1         0.6910104885E-03      0.1692612323E-02

    ------------------------------------------------
       NWT REQUIRED            6 OUTER ITERATIONS 
       AND A TOTAL OF         11 INNER ITERATIONS.
    ------------------------------------------------

 NO OUTPUT CONTROL FOR STRESS PERIOD   30   TIME STEP   26
 
 SOLVING FOR HEAD 
                                                   Max.-Head-Change                         Max.-Flux-Residual
  Residual-Control   Outer-Iter.   Inner-Iter.     Column Row Layer    Maximum-Head-Change  Column Row Layer    Maximum-Flux-Residual          L2-NORM 
          0                 1           2             4    7     1       0.4932436514E-02       4    7    1         0.2577962654E+00      0.9804774452E+00
          0                 2           2             4    7     1      -0.4797926203E-03       4    7    1        -0.2577968783E-01      0.9745983649E-01
          0                 3           2             4    7     1      -0.2314832775E-01       5    6    1        -0.1243599868E+01      0.3059523238E+01
          0                 4           2             4    7     1       0.2412782756E-01       5    6    1         0.1332049736E+01      0.3262869508E+01
          0                 5           2             4    7     1      -0.9601352896E-03       5    8    1        -0.5448522882E-01      0.1334609355E+00
          0                 6           1             4    7     1       0.1184084491E-04       5    8    1         0.6906091166E-03      0.1691627657E-02

    ------------------------------------------------
       NWT REQUIRED            6 OUTER ITERATIONS 
       AND A TOTAL OF         11 INNER ITERATIONS.
    ------------------------------------------------

 NO OUTPUT CONTROL FOR STRESS PERIOD   30   TIME STEP   27
 
 SOLVING FOR HEAD 
                                                   Max.-Head-Change                         Max.-Flux-Residual
  Residual-Control   Outer-Iter.   Inner-Iter.     Column Row Layer    Maximum-Head-Change  Column Row Layer    Maximum-Flux-Residual          L2-NORM 
          0                 1           2             4    7     1       0.4903777085E-02       4    7    1         0.2562898105E+00      0.9716382816E+00
          0                 2           2             4    7     1      -0.4770048335E-03       4    7    1        -0.2562904197E-01      0.9660154116E-01
          0                 3           2             4    7     1      -0.2314851304E-01       5    6    1        -0.1243605285E+01      0.3059539573E+01
          0                 4           2             4    7     1       0.2412782052E-01       5    6    1         0.1332049202E+01      0.3262868562E+01
          0                 5           2             4    7     1      -0.9601252054E-03       5    8    1        -0.5448465315E-01      0.1334595386E+00
          0                 6           1             4    7     1       0.1184753337E-04       5    8    1         0.6909991935E-03      0.1692585733E-02

    ------------------------------------------------
       NWT REQUIRED            6 OUTER ITERATIONS 
       AND A TOTAL OF         11 INNER ITERATIONS.
    ------------------------------------------------

 NO OUTPUT CONTROL FOR STRESS PERIOD   30   TIME STEP   28
 
 SOLVING FOR HEAD 
                                                   Max.-Head-Change                         Max.-Flux-Residual
  Residual-Control   Outer-Iter.   Inner-Iter.     Column Row Layer    Maximum-Head-Change  Column Row Layer    Maximum-Flux-Residual          L2-NORM 
          0                 1           2             4    7     1       0.4875221728E-02       4    7    1         0.2547890751E+00      0.9633705622E+00
          0                 2           2             4    7     1      -0.4742271706E-03       4    7    1        -0.2547896807E-01      0.9579912556E-01
          0                 3           2             4    7     1      -0.2314870208E-01       5    6    1        -0.1243611067E+01      0.3059556592E+01
          0                 4           2             4    7     1       0.2412781950E-01       5    6    1         0.1332049010E+01      0.3262868446E+01
          0                 5           2             4    7     1      -0.9601167619E-03       5    8    1        -0.5448417062E-01      0.1334583690E+00
          0                 6           1             4    7     1       0.1184061617E-04       5    8    1         0.6905956980E-03      0.1691594581E-02

    ------------------------------------------------
       NWT REQUIRED            6 OUTER ITERATIONS 
       AND A TOTAL OF         11 INNER ITERATIONS.
    ------------------------------------------------

 NO OUTPUT CONTROL FOR STRESS PERIOD   30   TIME STEP   29
 
 SOLVING FOR HEAD 
                                                   Max.-Head-Change                         Max.-Flux-Residual
  Residual-Control   Outer-Iter.   Inner-Iter.     Column Row Layer    Maximum-Head-Change  Column Row Layer    Maximum-Flux-Residual          L2-NORM 
          0                 1           2             4    7     1       0.4847048541E-02       4    7    1         0.2533085087E+00      0.9556344959E+00
          0                 2           2             4    7     1      -0.4714866828E-03       4    7    1        -0.2533091109E-01      0.9504501348E-01
          0                 3           2             4    7     1      -0.2314888410E-01       5    6    1        -0.1243616613E+01      0.3059572803E+01
          0                 4           2             4    7     1       0.2412781227E-01       5    6    1         0.1332048485E+01      0.3262867476E+01
          0                 5           2             4    7     1      -0.9601066709E-03       5    8    1        -0.5448359490E-01      0.1334569619E+00
          0                 6           1             4    7     1       0.1184321695E-04       5    8    1         0.6907473326E-03      0.1691971733E-02

    ------------------------------------------------
       NWT REQUIRED            6 OUTER ITERATIONS 
       AND A TOTAL OF         11 INNER ITERATIONS.
    ------------------------------------------------

 NO OUTPUT CONTROL FOR STRESS PERIOD   30   TIME STEP   30



 STREAM LISTING     PERIOD     30   STEP       30

 LAYER ROW COL. STREAM  RCH.  FLOW INTO     FLOW TO   FLOW OUT OF   OVRLND.     DIRECT     STREAM       STREAM     STREAM     STREAM   STREAMBED  STREAMBED
                SEG.NO.  NO.  STRM. RCH.    AQUIFER    STRM. RCH.    RUNOFF     PRECIP       ET          HEAD       DEPTH      WIDTH   CONDCTNC.   GRADIENT

   1    1    1     1     1    7.4248E+01  4.1988E-01   7.3828E+01  0.000E+00  0.000E+00  0.000E+00  1.09474E+03  1.690E+00  1.990E+01  8.954E-02  1.563E+00
   1    2    2     1     2    7.3828E+01  6.5043E-01   7.3177E+01  0.000E+00  0.000E+00  0.000E+00  1.08974E+03  1.684E+00  1.984E+01  1.389E-01  1.561E+00
   1    3    3     1     3    7.3177E+01  5.5489E-01   7.2623E+01  0.000E+00  0.000E+00  0.000E+00  1.08410E+03  1.677E+00  1.977E+01  1.186E-01  1.559E+00
   1    3    4     1     4    7.2623E+01  5.1112E-01   7.2111E+01  0.000E+00  0.000E+00  0.000E+00  1.07908E+03  1.671E+00  1.972E+01  1.094E-01  1.557E+00
   1    4    5     2     1    7.0111E+01  4.0856E-01   6.9703E+01  0.000E+00  0.000E+00  0.000E+00  1.07417E+03  2.238E+00  1.200E+01  7.800E-02  1.746E+00
   1    5    6     2     2    6.9703E+01  3.1386E-01   6.9389E+01  0.000E+00  0.000E+00  0.000E+00  1.06874E+03  2.231E+00  1.200E+01  6.000E-02  1.744E+00
   1    6    6     2     3    6.9389E+01  3.1350E-01   6.9075E+01  0.000E+00  0.000E+00  0.000E+00  1.06402E+03  2.225E+00  1.200E+01  6.000E-02  1.742E+00
   1    7    6     2     4    6.9075E+01  3.1314E-01   6.8762E+01  0.000E+00  0.000E+00  0.000E+00  1.05929E+03  2.219E+00  1.200E+01  6.000E-02  1.740E+00
   1    8    6     2     5    6.8762E+01  3.1277E-01   6.8450E+01  0.000E+00  0.000E+00  0.000E+00  1.05457E+03  2.213E+00  1.200E+01  6.000E-02  1.738E+00
   1    3    5     3     1    2.0000E+00  2.8252E-01   1.7175E+00  0.000E+00  0.000E+00  0.000E+00  1.07555E+03  1.909E+00  9.636E+00  7.227E-02  1.955E+00
   1    3    6     3     2    1.7175E+00  2.4905E-01   1.4684E+00  0.000E+00  0.000E+00  0.000E+00  1.07264E+03  1.727E+00  8.909E+00  6.682E-02  1.864E+00
   1    3    7     3     3    1.4684E+00  1.9718E-01   1.2712E+00  0.000E+00  0.000E+00  0.000E+00  1.06987E+03  1.555E+00  8.218E+00  5.547E-02  1.777E+00
   1    4    8     3     4    1.2712E+00  2.2567E-01   1.0456E+00  0.000E+00  0.000E+00  0.000E+00  1.06682E+03  1.364E+00  7.455E+00  6.709E-02  1.682E+00
   1    5    8     3     5    1.0456E+00  1.5790E-01   8.8768E-01  0.000E+00  0.000E+00  0.000E+00  1.06362E+03  1.164E+00  6.655E+00  4.991E-02  1.582E+00
   1    6    8     3     6    8.8768E-01  5.5980E-02   8.3170E-01  0.000E+00  0.000E+00  0.000E+00  1.06158E+03  1.036E+00  6.145E+00  1.844E-02  1.518E+00
   1    5   10     4     1    1.0000E+01  9.0919E-02   9.9091E+00  0.000E+00  0.000E+00  0.000E+00  1.07836E+03  6.368E-01  1.000E+01  2.500E-02  1.212E+00
   1    5    9     4     2    9.9091E+00  1.8158E-01   9.7275E+00  0.000E+00  0.000E+00  0.000E+00  1.07154E+03  6.315E-01  1.000E+01  5.000E-02  1.211E+00
   1    6    8     4     3    9.7275E+00  1.2689E-01   9.6006E+00  0.000E+00  0.000E+00  0.000E+00  1.06381E+03  6.256E-01  1.000E+01  3.500E-02  1.209E+00
   1    6    8     5     1    1.0432E+01  2.2686E-01   1.0205E+01  0.000E+00  0.000E+00  0.000E+00  1.05868E+03  6.790E-01  1.542E+01  6.166E-02  1.226E+00
   1    7    7     5     2    1.0205E+01  2.7894E-01   9.9265E+00  0.000E+00  0.000E+00  0.000E+00  1.05417E+03  6.732E-01  1.519E+01  7.594E-02  1.224E+00
   1    8    7     5     3    9.9265E+00  1.9221E-01   9.7343E+00  0.000E+00  0.000E+00  0.000E+00  1.04992E+03  6.676E-01  1.497E+01  5.241E-02  1.223E+00
   1    8    6     5     4    9.7343E+00  1.3577E-01   9.5985E+00  0.000E+00  0.000E+00  0.000E+00  1.04691E+03  6.637E-01  1.482E+01  3.706E-02  1.221E+00
   1    9    6     6     1    7.0578E+01  3.1638E-01   7.0262E+01  0.000E+00  0.000E+00  0.000E+00  1.04500E+03  2.273E+00  1.200E+01  6.000E-02  1.758E+00
   1   10    7     6     2    7.0262E+01  3.1601E-01   6.9946E+01  0.000E+00  0.000E+00  0.000E+00  1.04045E+03  2.267E+00  1.200E+01  6.000E-02  1.756E+00
   1   11    7     6     3    6.9946E+01  3.1564E-01   6.9630E+01  0.000E+00  0.000E+00  0.000E+00  1.03590E+03  2.261E+00  1.200E+01  6.000E-02  1.754E+00
   1   12    7     6     4    6.9630E+01  3.1527E-01   6.9315E+01  0.000E+00  0.000E+00  0.000E+00  1.03135E+03  2.255E+00  1.200E+01  6.000E-02  1.752E+00
   1   13    7     6     5    6.9315E+01  2.6545E-02   6.9288E+01  0.000E+00  0.000E+00  0.000E+00  1.02816E+03  2.251E+00  1.200E+01  2.400E-02  3.687E-01
   1   14    9     7     1    1.5000E+02  1.3395E+00   1.4866E+02  0.000E+00  0.000E+00  0.000E+00  1.03987E+03  2.288E+00  5.529E+01  5.593E-01  7.983E-01
   1   13    8     7     2    1.4866E+02  1.8429E+00   1.4682E+02  0.000E+00  0.000E+00  0.000E+00  1.03478E+03  2.279E+00  5.526E+01  6.148E-01  9.993E-01
   1   13    7     7     3    1.4682E+02  1.4718E+00   1.4535E+02  0.000E+00  0.000E+00  0.000E+00  1.02969E+03  2.270E+00  5.522E+01  5.584E-01  8.785E-01
   1   13    6     8     1    2.1463E+02  1.1104E+00   2.1352E+02  0.000E+00  0.000E+00  0.000E+00  1.02509E+03  3.219E+00  4.667E+01  4.756E-01  7.782E-01
   1   13    5     8     2    2.1352E+02  2.9274E-01   2.1323E+02  0.000E+00  0.000E+00  0.000E+00  1.01884E+03  3.215E+00  4.662E+01  4.750E-01  2.054E-01
   1   13    4     8     3    2.1323E+02 -2.0996E+00   2.1533E+02  0.000E+00  0.000E+00  0.000E+00  1.01259E+03  3.220E+00  4.669E+01  4.758E+00 -1.471E-01
   1   13    3     8     4    2.1533E+02 -3.3804E+00   2.1871E+02  0.000E+00  0.000E+00  0.000E+00  1.00636E+03  3.235E+00  4.691E+01  4.780E+00 -2.357E-01
   1   13    2     8     5    2.1871E+02 -2.4397E+00   2.2115E+02  0.000E+00  0.000E+00  0.000E+00  1.00013E+03  3.252E+00  4.715E+01  4.804E+00 -1.693E-01
   1   13    1     8     6    2.2115E+02 -1.8675E+00   2.2302E+02  0.000E+00  0.000E+00  0.000E+00  9.95138E+02  3.263E+00  4.732E+01  2.893E+00 -2.152E-01
   1    8    6     9     1    7.4700E+00  0.0000E+00   7.4700E+00  0.000E+00  0.000E+00  0.000E+00  1.08065E+03  1.902E+00  4.000E+00  0.000E+00  1.634E+00
   1    8    5     9     2    7.4700E+00  0.0000E+00   7.4700E+00  0.000E+00  0.000E+00  0.000E+00  1.08015E+03  1.902E+00  4.000E+00  0.000E+00  1.634E+00





UNSATURATED ZONE PACKAGE VOLUMETRIC BUDGET FOR  TIME STEP    30 STRESS PERIOD   30
  ------------------------------------------------------------------------------



     CUMULATIVE VOLUMES      L**3       RATES FOR THIS TIME STEP      L**3/T
     ------------------                 ------------------------

           IN:                                      IN:
           ---                                      ---
        INFILTRATION =  1023522614.0134          INFILTRATION =           8.3177

          OUT:                                     OUT:
          ----                                     ----
              UZF ET =   891442614.4007                UZF ET =           8.3175
        UZF RECHARGE =       73224.0000          UZF RECHARGE =       0.0000E+00

            IN - OUT =   132006775.6127              IN - OUT =       1.8454E-04

          STORAGE:                                 STORAGE:
          --------                                 --------
      STORAGE CHANGE =   132008050.1359        STORAGE CHANGE =       1.8437E-04

 PERCENT DISCREPANCY IS DIFFERENCE BETWEEN IN-OUT MINUS CHANGE IN STORAGE
 DIVIDED BY THE AVERAGE OF IN AND OUT TIMES 100

 PERCENT DISCREPANCY =          -0.00     PERCENT DISCREPANCY =           0.00






1
  VOLUMETRIC BUDGET FOR AGRICULTURAL FIELDS AT  END OF TIME STEP   30, STRESS PERIOD  30
  ------------------------------------------------------------------------------

     CUMULATIVE VOLUMES      L**3       RATES FOR THIS TIME STEP      L**3/T
     ------------------                 ------------------------

           IN:                                      IN:
           ---                                      ---
               AG WELLS  =   328055200.0000                 AG WELLS  =       1.4305E-06
      DIVERSION SEGMENTS =   630799936.0000        DIVERSION SEGMENTS =           7.4700
       IRRIGATION PONDS  =           0.0000         IRRIGATION PONDS  =           0.0000
           GW IRRIGATION =           0.0000             GW IRRIGATION =           0.0000
           SW IRRIGATION =           0.0000             SW IRRIGATION =           0.0000
        SYSTEM LOSSES GW =           0.0000          SYSTEM LOSSES GW =           0.0000
        SYSTEM LOSSES SW =           0.0000          SYSTEM LOSSES SW =           0.0000

                TOTAL IN =   958855168.0000                  TOTAL IN =           7.4700

          OUT:                                     OUT:
          ----                                     ----
               AG WELLS  =           0.0000                 AG WELLS  =           0.0000
      DIVERSION SEGMENTS =           0.0000        DIVERSION SEGMENTS =           0.0000
       IRRIGATION PONDS  =           0.0000         IRRIGATION PONDS  =           0.0000
           GW IRRIGATION =   328055200.0000             GW IRRIGATION =       1.4305E-06
           SW IRRIGATION =   630813568.0000             SW IRRIGATION =           7.4702
        SYSTEM LOSSES GW =           0.0000          SYSTEM LOSSES GW =           0.0000
        SYSTEM LOSSES SW =           0.0000          SYSTEM LOSSES SW =           0.0000

               TOTAL OUT =   958868736.0000                 TOTAL OUT =           7.4702

                IN - OUT =      -13568.0000                  IN - OUT =      -1.4877E-04

     PERCENT DISCREPANCY =          -0.00         PERCENT DISCREPANCY =          -0.00



1
  VOLUMETRIC BUDGET FOR ENTIRE MODEL AT END OF TIME STEP   30, STRESS PERIOD  30
  ------------------------------------------------------------------------------

     CUMULATIVE VOLUMES      L**3       RATES FOR THIS TIME STEP      L**3/T
     ------------------                 ------------------------

           IN:                                      IN:
           ---                                      ---
             STORAGE     =   583784128.0000               STORAGE     =           1.3667
       CONSTANT HEAD     =           0.0000         CONSTANT HEAD     =           0.0000
     HEAD DEP BOUNDS     =    21821994.0000       HEAD DEP BOUNDS     =           0.2860
      STREAM LEAKAGE     =   910807936.0000        STREAM LEAKAGE     =          13.5467
        UZF RECHARGE     =       73223.9531          UZF RECHARGE     =           0.0000
               GW ET     =           0.0000                 GW ET     =           0.0000
     SURFACE LEAKAGE     =           0.0000       SURFACE LEAKAGE     =           0.0000
           AG WELLS      =           0.0000             AG WELLS      =           0.0000

                TOTAL IN =  1516487296.0000                  TOTAL IN =          15.1994

          OUT:                                     OUT:
          ----                                     ----
             STORAGE     =   342321088.0000               STORAGE     =           4.8581
       CONSTANT HEAD     =           0.0000         CONSTANT HEAD     =           0.0000
     HEAD DEP BOUNDS     =    22203656.0000       HEAD DEP BOUNDS     =           0.2958
      STREAM LEAKAGE     =   821174016.0000        STREAM LEAKAGE     =           9.7872
        UZF RECHARGE     =           0.0000          UZF RECHARGE     =           0.0000
               GW ET     =     2740642.2500                 GW ET     =           0.2581
     SURFACE LEAKAGE     =           0.0000       SURFACE LEAKAGE     =           0.0000
           AG WELLS      =   328055200.0000             AG WELLS      =       1.4305E-06

               TOTAL OUT =  1516494592.0000                 TOTAL OUT =          15.1993

                IN - OUT =       -7296.0000                  IN - OUT =       6.5804E-05

     PERCENT DISCREPANCY =          -0.00         PERCENT DISCREPANCY =           0.00






         TIME SUMMARY AT END OF TIME STEP   30 IN STRESS PERIOD   30
                    SECONDS     MINUTES      HOURS       DAYS        YEARS
                    -----------------------------------------------------------
   TIME STEP LENGTH  87667.      1461.1      24.352      1.0147     2.77799E-03
 STRESS PERIOD TIME 2.63000E+06  43833.      730.56      30.440     8.33397E-02
         TOTAL TIME 7.63565E+07 1.27261E+06  21210.      883.76      2.4196    
1
1
                            STRESS PERIOD NO.   31, LENGTH =   2630000.    
                            -----------------------------------------------

                              NUMBER OF TIME STEPS =    30

                               MULTIPLIER FOR DELT =     1.000

                            INITIAL TIME STEP SIZE =   87666.66    

 REUSING NON-PARAMETER GHB CELLS FROM LAST STRESS PERIOD

      2 GHB CELLS

 REUSING STREAM SEGMENT DATA FROM LAST STRESS PERIOD



            AREAL INFILTRATION RATE
 READING ON UNIT   19 WITH FORMAT: (FREE)              

            1           2           3           4           5           6           7           8           9          10
 ........................................................................................................................
   1   1.0000E-10  2.0000E-10   0.000       0.000       0.000       0.000       0.000       0.000       0.000       0.000    
   2   2.0000E-10  1.0000E-10  2.0000E-10   0.000       0.000      8.0000E-10  8.0000E-10  5.0000E-10   0.000       0.000    
   3    0.000      5.0000E-10  1.0000E-10  1.0000E-10  8.0000E-10  8.0000E-10  5.0000E-10  5.0000E-10   0.000       0.000    
   4   8.0000E-10  5.0000E-10  1.0000E-10  1.0000E-10  1.0000E-10  1.0000E-10  1.0000E-10  1.0000E-10  2.0000E-10   0.000    
   5   8.0000E-10  5.0000E-10  1.0000E-10  1.0000E-10  1.0000E-10  1.0000E-10  1.0000E-10  1.0000E-10  1.0000E-10  1.0000E-10
   6   8.0000E-10  5.0000E-10  5.0000E-10  2.0000E-10  2.0000E-10  1.0000E-10  1.0000E-10  1.0000E-10  1.0000E-10  5.0000E-10
   7   8.0000E-10  5.0000E-10  5.0000E-10  2.0000E-10  2.0000E-10  1.0000E-10  1.0000E-10  2.0000E-10  2.0000E-10   0.000    
   8    0.000      5.0000E-10  5.0000E-10  2.0000E-10  2.0000E-10  1.0000E-10  1.0000E-10  2.0000E-10  5.0000E-10   0.000    
   9    0.000      5.0000E-10  5.0000E-10  2.0000E-10  2.0000E-10  1.0000E-10  1.0000E-10  2.0000E-10  5.0000E-10   0.000    
  10    0.000      5.0000E-10  5.0000E-10  2.0000E-10  2.0000E-10  1.0000E-10  1.0000E-10  2.0000E-10  5.0000E-10  8.0000E-10
  11    0.000      1.0000E-10  1.0000E-10  1.0000E-10  1.0000E-10  1.0000E-10  1.0000E-10  2.0000E-10  5.0000E-10   0.000    
  12   1.0000E-10  1.0000E-10  1.0000E-10  1.0000E-10  1.0000E-10  1.0000E-10  1.0000E-10  1.0000E-10  2.0000E-10   0.000    
  13   1.0000E-10  1.0000E-10  2.0000E-10  2.0000E-10  2.0000E-10  2.0000E-10  2.0000E-10  1.0000E-10  1.0000E-10   0.000    
  14    0.000      2.0000E-10  5.0000E-10  5.0000E-10  5.0000E-10  5.0000E-10  5.0000E-10  2.0000E-10  1.0000E-10   0.000    
  15    0.000       0.000      8.0000E-10  8.0000E-10  8.0000E-10  8.0000E-10   0.000       0.000       0.000       0.000    

                  ET RATE =  1.500000E-07

 USING ET EXTINCTION DEPTH FROM PREVIOUS STRESS PERIOD. CURRENT PERIOD IS:      31

 USING EXTINCTION WATER CONTENT FROM PREVIOUS STRESS PERIOD. CURRENT PERIOD IS:      31

 USING AIR ENTRY PRESSURE FROM PREVIOUS STRESS PERIOD. CURRENT PERIOD IS:      31

 USING ROOT PRESSURE HEAD FROM PREVIOUS STRESS PERIOD. CURRENT PERIOD IS:      31

 USING ROOT ACTIVITY FROM PREVIOUS STRESS PERIOD. CURRENT PERIOD IS:      31

 PROCESSING AG STRESS PERIOD DATA

 READING AG STRESS PERIOD DATA

 READING IRRIGATION SEGMENT

 READING IRRIGATION WELL

 READING SUPPLEMENTAL WELL

 NO IRRPOND OR REUSING IRRPOND DATA FROM LAST STRESS PERIOD

 END PROCESSING AG STRESS PERIOD DATA OPTIONS
 
 SOLVING FOR HEAD 
                                                   Max.-Head-Change                         Max.-Flux-Residual
  Residual-Control   Outer-Iter.   Inner-Iter.     Column Row Layer    Maximum-Head-Change  Column Row Layer    Maximum-Flux-Residual          L2-NORM 
          0                 1           2             3   13     1      -0.1127822112E-01       3   13    1        -0.7202875005E+00      0.1317585701E+01
          0                 2           2             4    7     1      -0.4700484606E-01       4    7    1        -0.2524450039E+01      0.6193972275E+01
          0                 3           2             4    7     1       0.4847162034E-01       4    7    1         0.2675973100E+01      0.6554239237E+01
          0                 4           2             4    7     1      -0.1929050646E-02       4    6    1        -0.1106763431E+00      0.2686027004E+00
          0                 5           1             4    7     1       0.2378596864E-04       4    6    1         0.1402789685E-02      0.3406112824E-02

    ------------------------------------------------
       NWT REQUIRED            5 OUTER ITERATIONS 
       AND A TOTAL OF          9 INNER ITERATIONS.
    ------------------------------------------------

 NO OUTPUT CONTROL FOR STRESS PERIOD   31   TIME STEP    1
 
 SOLVING FOR HEAD 
                                                   Max.-Head-Change                         Max.-Flux-Residual
  Residual-Control   Outer-Iter.   Inner-Iter.     Column Row Layer    Maximum-Head-Change  Column Row Layer    Maximum-Flux-Residual          L2-NORM 
          0                 1           2             4    7     1       0.4791667735E-02       4    7    1         0.2504038697E+00      0.8346447751E+00
          0                 2           2             4    7     1      -0.4660993400E-03       4    7    1        -0.2504043090E-01      0.8343198870E-01
          0                 3           2             4    7     1      -0.2305452577E-01       5    6    1        -0.1238541630E+01      0.3047173596E+01
          0                 4           2             4    7     1       0.2279192741E-01       5    6    1         0.1258298289E+01      0.3082162218E+01
          0                 5           2             4    7     1      -0.1625849749E-03       5    8    1        -0.9227569392E-02      0.2338294854E-01
          0                 6           2             4    7     1      -0.4883742314E-03       4    7    1        -0.2771287874E-01      0.6899367092E-01
          0                 7           2             4    7     1      -0.4221503805E-02       4    8    1        -0.2395475816E+00      0.5906591522E+00
          0                 8           2             4    7     1       0.4501696507E-02       5    6    1         0.2625455847E+00      0.6431324024E+00
          0                 9           1             4    7     1       0.6993508361E-04       4   13    1        -0.4439788936E-02      0.1262785463E-01

    ------------------------------------------------
       NWT REQUIRED            9 OUTER ITERATIONS 
       AND A TOTAL OF         17 INNER ITERATIONS.
    ------------------------------------------------

 NO OUTPUT CONTROL FOR STRESS PERIOD   31   TIME STEP    2
 
 SOLVING FOR HEAD 
                                                   Max.-Head-Change                         Max.-Flux-Residual
  Residual-Control   Outer-Iter.   Inner-Iter.     Column Row Layer    Maximum-Head-Change  Column Row Layer    Maximum-Flux-Residual          L2-NORM 
          0                 1           2             4    7     1       0.4768210981E-02       4    7    1         0.2491584773E+00      0.8139695934E+00
          0                 2           2             4    7     1      -0.3760323918E-01       4    7    1        -0.2019525464E+01      0.4960987784E+01
          0                 3           2             4    7     1      -0.2798399328E+00       5    6    1        -0.1502918509E+02      0.3684878661E+02
          0                 4           2             4    7     1       0.1535815792E+00       5    6    1         0.8478570043E+01      0.2076653637E+02
          0                 5           2             4    8     1      -0.6118023950E-02       4    8    1        -0.3513208329E+00      0.8517270449E+00
          0                 6           1             4    8     1       0.7549197192E-04       4    8    1         0.4456211289E-02      0.1082530506E-01

    ------------------------------------------------
       NWT REQUIRED            6 OUTER ITERATIONS 
       AND A TOTAL OF         11 INNER ITERATIONS.
    ------------------------------------------------

 NO OUTPUT CONTROL FOR STRESS PERIOD   31   TIME STEP    3
 
 SOLVING FOR HEAD 
                                                   Max.-Head-Change                         Max.-Flux-Residual
  Residual-Control   Outer-Iter.   Inner-Iter.     Column Row Layer    Maximum-Head-Change  Column Row Layer    Maximum-Flux-Residual          L2-NORM 
          0                 1           2             5    8     1       0.8912195754E-02       5    8    1         0.4802353749E+00      0.1144453108E+01
          0                 2           2             7   13     1      -0.4377451241E-02       7   13    1        -0.2429263448E+00      0.2667330680E+00
          0                 3           2             4    7     1      -0.6978646019E-01       4    7    1        -0.3747898295E+01      0.9219767998E+01
          0                 4           2             4    7     1       0.7268313282E-01       5    7    1         0.4012357917E+01      0.9827438882E+01
          0                 5           2             4    7     1      -0.2895845243E-02       4    7    1        -0.1643344637E+00      0.4021775302E+00
          0                 6           1             4    7     1       0.3573339430E-04       4    7    1         0.2084161849E-02      0.5100842456E-02

    ------------------------------------------------
       NWT REQUIRED            6 OUTER ITERATIONS 
       AND A TOTAL OF         11 INNER ITERATIONS.
    ------------------------------------------------

 NO OUTPUT CONTROL FOR STRESS PERIOD   31   TIME STEP    4
 
 SOLVING FOR HEAD 
                                                   Max.-Head-Change                         Max.-Flux-Residual
  Residual-Control   Outer-Iter.   Inner-Iter.     Column Row Layer    Maximum-Head-Change  Column Row Layer    Maximum-Flux-Residual          L2-NORM 
          0                 1           2             5    8     1       0.8604777768E-02       5    8    1         0.4631302661E+00      0.1122408638E+01
          0                 2           2             5    8     1      -0.8370134124E-03       5    8    1        -0.4631324838E-01      0.1148485921E+00
          0                 3           1             5    8     1       0.5699747826E-04       5    8    1         0.3241926688E-02      0.8004203674E-02

    ------------------------------------------------
       NWT REQUIRED            3 OUTER ITERATIONS 
       AND A TOTAL OF          5 INNER ITERATIONS.
    ------------------------------------------------

 NO OUTPUT CONTROL FOR STRESS PERIOD   31   TIME STEP    5
 
 SOLVING FOR HEAD 
                                                   Max.-Head-Change                         Max.-Flux-Residual
  Residual-Control   Outer-Iter.   Inner-Iter.     Column Row Layer    Maximum-Head-Change  Column Row Layer    Maximum-Flux-Residual          L2-NORM 
          0                 1           2             5    8     1       0.8317646954E-02       5    8    1         0.4471569686E+00      0.1091503078E+01
          0                 2           2             4    7     1      -0.7030734090E-01       5    8    1        -0.3789716023E+01      0.9311347047E+01
          0                 3           2             4    7     1       0.7263016088E-01       5    8    1         0.4010269747E+01      0.9821402025E+01
          0                 4           2             4    7     1      -0.2896397799E-02       4    7    1        -0.1643771220E+00      0.4019027115E+00
          0                 5           1             4    7     1       0.3571369728E-04       4    7    1         0.2083156161E-02      0.5093315898E-02

    ------------------------------------------------
       NWT REQUIRED            5 OUTER ITERATIONS 
       AND A TOTAL OF          9 INNER ITERATIONS.
    ------------------------------------------------

 NO OUTPUT CONTROL FOR STRESS PERIOD   31   TIME STEP    6
 
 SOLVING FOR HEAD 
                                                   Max.-Head-Change                         Max.-Flux-Residual
  Residual-Control   Outer-Iter.   Inner-Iter.     Column Row Layer    Maximum-Head-Change  Column Row Layer    Maximum-Flux-Residual          L2-NORM 
          0                 1           2             5    8     1       0.8048928875E-02       5    8    1         0.4322323621E+00      0.1095063182E+01
          0                 2           2             5    8     1      -0.7829443419E-03       5    8    1        -0.4322344291E-01      0.1117964788E+00
          0                 3           2             4    7     1      -0.6969258000E-01       4    7    1        -0.3742850075E+01      0.9207849996E+01
          0                 4           2             4    7     1       0.7259133333E-01       5    7    1         0.4007012158E+01      0.9814482221E+01
          0                 5           2             4    7     1      -0.2897222834E-02       4    7    1        -0.1644290027E+00      0.4017576655E+00
          0                 6           1             4    7     1       0.3575039114E-04       4    7    1         0.2085360702E-02      0.5095445718E-02

    ------------------------------------------------
       NWT REQUIRED            6 OUTER ITERATIONS 
       AND A TOTAL OF         11 INNER ITERATIONS.
    ------------------------------------------------

 NO OUTPUT CONTROL FOR STRESS PERIOD   31   TIME STEP    7
 
 SOLVING FOR HEAD 
                                                   Max.-Head-Change                         Max.-Flux-Residual
  Residual-Control   Outer-Iter.   Inner-Iter.     Column Row Layer    Maximum-Head-Change  Column Row Layer    Maximum-Flux-Residual          L2-NORM 
          0                 1           2             5    8     1       0.7797277737E-02       5    8    1         0.4182679734E+00      0.1099632071E+01
          0                 2           2             5    8     1      -0.7584653285E-03       5    8    1        -0.4182698859E-01      0.1094851092E+00
          0                 3           2             4    7     1      -0.6969239151E-01       4    7    1        -0.3742838150E+01      0.9208070640E+01
          0                 4           2             4    7     1       0.7259304474E-01       5    7    1         0.4007013276E+01      0.9814576918E+01
          0                 5           2             4    7     1      -0.2898980242E-02       4    7    1        -0.1645342271E+00      0.4018013730E+00
          0                 6           1             4    7     1       0.3577207607E-04       4    7    1         0.2086695160E-02      0.5095791781E-02

    ------------------------------------------------
       NWT REQUIRED            6 OUTER ITERATIONS 
       AND A TOTAL OF         11 INNER ITERATIONS.
    ------------------------------------------------

 NO OUTPUT CONTROL FOR STRESS PERIOD   31   TIME STEP    8
 
 SOLVING FOR HEAD 
                                                   Max.-Head-Change                         Max.-Flux-Residual
  Residual-Control   Outer-Iter.   Inner-Iter.     Column Row Layer    Maximum-Head-Change  Column Row Layer    Maximum-Flux-Residual          L2-NORM 
          0                 1           2             5    8     1       0.7561363779E-02       5    8    1         0.4051884913E+00      0.1105377609E+01
          0                 2           2             5    8     1      -0.7355171352E-03       5    8    1        -0.4051902646E-01      0.1099541104E+00
          0                 3           2             4    7     1      -0.6969224299E-01       4    7    1        -0.3742828529E+01      0.9208246370E+01
          0                 4           2             4    7     1       0.7259476383E-01       5    7    1         0.4007014698E+01      0.9814625459E+01
          0                 5           2             4    7     1      -0.2900739274E-02       4    7    1        -0.1646395503E+00      0.4018450068E+00
          0                 6           1             4    7     1       0.3579378093E-04       4    7    1         0.2088030875E-02      0.5096348012E-02

    ------------------------------------------------
       NWT REQUIRED            6 OUTER ITERATIONS 
       AND A TOTAL OF         11 INNER ITERATIONS.
    ------------------------------------------------

 NO OUTPUT CONTROL FOR STRESS PERIOD   31   TIME STEP    9
 
 SOLVING FOR HEAD 
                                                   Max.-Head-Change                         Max.-Flux-Residual
  Residual-Control   Outer-Iter.   Inner-Iter.     Column Row Layer    Maximum-Head-Change  Column Row Layer    Maximum-Flux-Residual          L2-NORM 
          0                 1           2             5    8     1       0.7340117652E-02       5    8    1         0.3929328620E+00      0.1111518126E+01
          0                 2           2             5    8     1      -0.7139957409E-03       5    8    1        -0.3929345096E-01      0.1104676367E+00
          0                 3           2             4    7     1      -0.6969213042E-01       4    7    1        -0.3742820977E+01      0.9208412378E+01
          0                 4           2             4    7     1       0.7259648820E-01       5    7    1         0.4007016421E+01      0.9814674282E+01
          0                 5           2             4    7     1      -0.2902497694E-02       4    7    1        -0.1647448381E+00      0.4018886801E+00
          0                 6           1             4    7     1       0.3581547841E-04       4    7    1         0.2089366149E-02      0.5096899807E-02

    ------------------------------------------------
       NWT REQUIRED            6 OUTER ITERATIONS 
       AND A TOTAL OF         11 INNER ITERATIONS.
    ------------------------------------------------

 NO OUTPUT CONTROL FOR STRESS PERIOD   31   TIME STEP   10
 
 SOLVING FOR HEAD 
                                                   Max.-Head-Change                         Max.-Flux-Residual
  Residual-Control   Outer-Iter.   Inner-Iter.     Column Row Layer    Maximum-Head-Change  Column Row Layer    Maximum-Flux-Residual          L2-NORM 
          0                 1           2             5    8     1       0.7132272231E-02       5    8    1         0.3814298536E+00      0.1117590454E+01
          0                 2           2             5    8     1      -0.6937778879E-03       5    8    1        -0.3814313880E-01      0.1109805882E+00
          0                 3           2             4    7     1      -0.6969204457E-01       4    7    1        -0.3742815004E+01      0.9208568170E+01
          0                 4           2             4    7     1       0.7259820594E-01       5    7    1         0.4007017915E+01      0.9814722078E+01
          0                 5           2             4    7     1      -0.2904252441E-02       4    7    1        -0.1648499083E+00      0.4019322884E+00
          0                 6           1             4    7     1       0.3583713063E-04       4    7    1         0.2090727166E-02      0.5097484685E-02

    ------------------------------------------------
       NWT REQUIRED            6 OUTER ITERATIONS 
       AND A TOTAL OF         11 INNER ITERATIONS.
    ------------------------------------------------

 NO OUTPUT CONTROL FOR STRESS PERIOD   31   TIME STEP   11
 
 SOLVING FOR HEAD 
                                                   Max.-Head-Change                         Max.-Flux-Residual
  Residual-Control   Outer-Iter.   Inner-Iter.     Column Row Layer    Maximum-Head-Change  Column Row Layer    Maximum-Flux-Residual          L2-NORM 
          0                 1           2             5    8     1       0.6936951188E-02       5    8    1         0.3706295539E+00      0.1123347410E+01
          0                 2           2             5    8     1      -0.6747783303E-03       5    8    1        -0.3706309858E-01      0.1114694870E+00
          0                 3           2             4    7     1      -0.6969198518E-01       4    7    1        -0.3742810591E+01      0.9208714560E+01
          0                 4           2             4    7     1       0.7259991470E-01       5    7    1         0.4007019180E+01      0.9814768816E+01
          0                 5           2             4    7     1      -0.2906001137E-02       4    7    1        -0.1649546186E+00      0.4019757397E+00
          0                 6           1             4    7     1       0.3585870825E-04       4    7    1         0.2092083523E-02      0.5098046682E-02

    ------------------------------------------------
       NWT REQUIRED            6 OUTER ITERATIONS 
       AND A TOTAL OF         11 INNER ITERATIONS.
    ------------------------------------------------

 NO OUTPUT CONTROL FOR STRESS PERIOD   31   TIME STEP   12
 
 SOLVING FOR HEAD 
                                                   Max.-Head-Change                         Max.-Flux-Residual
  Residual-Control   Outer-Iter.   Inner-Iter.     Column Row Layer    Maximum-Head-Change  Column Row Layer    Maximum-Flux-Residual          L2-NORM 
          0                 1           2             5    8     1       0.6753207401E-02       4   13    1         0.3762975199E+00      0.1128660308E+01
          0                 2           2             5    8     1      -0.6569049379E-03       4   13    1        -0.3725568177E-01      0.1119194373E+00
          0                 3           2             4    7     1      -0.6969195539E-01       4    7    1        -0.3742807891E+01      0.9208853678E+01
          0                 4           2             4    7     1       0.7260162131E-01       5    7    1         0.4007020709E+01      0.9814815720E+01
          0                 5           2             4    7     1      -0.2907741981E-02       4    7    1        -0.1650588596E+00      0.4020190691E+00
          0                 6           1             4    7     1       0.3588018886E-04       4    7    1         0.2093433785E-02      0.5098619579E-02

    ------------------------------------------------
       NWT REQUIRED            6 OUTER ITERATIONS 
       AND A TOTAL OF         11 INNER ITERATIONS.
    ------------------------------------------------

 NO OUTPUT CONTROL FOR STRESS PERIOD   31   TIME STEP   13
 
 SOLVING FOR HEAD 
                                                   Max.-Head-Change                         Max.-Flux-Residual
  Residual-Control   Outer-Iter.   Inner-Iter.     Column Row Layer    Maximum-Head-Change  Column Row Layer    Maximum-Flux-Residual          L2-NORM 
          0                 1           2             4   13     1       0.6746148135E-02       4   13    1         0.3892501560E+00      0.1133461331E+01
          0                 2           2             4   13     1      -0.6496026794E-03       4   13    1        -0.3853787560E-01      0.1123250295E+00
          0                 3           2             4    7     1      -0.6969195523E-01       4    7    1        -0.3742806900E+01      0.9208985774E+01
          0                 4           2             4    7     1       0.7260332419E-01       5    7    1         0.4007022504E+01      0.9814862751E+01
          0                 5           2             4    7     1      -0.2909473358E-02       4    7    1        -0.1651625348E+00      0.4020622164E+00
          0                 6           1             4    7     1       0.3590155230E-04       4    7    1         0.2094776720E-02      0.5099198582E-02

    ------------------------------------------------
       NWT REQUIRED            6 OUTER ITERATIONS 
       AND A TOTAL OF         11 INNER ITERATIONS.
    ------------------------------------------------

 NO OUTPUT CONTROL FOR STRESS PERIOD   31   TIME STEP   14
 
 SOLVING FOR HEAD 
                                                   Max.-Head-Change                         Max.-Flux-Residual
  Residual-Control   Outer-Iter.   Inner-Iter.     Column Row Layer    Maximum-Head-Change  Column Row Layer    Maximum-Flux-Residual          L2-NORM 
          0                 1           2             4   13     1       0.6948649932E-02       4   13    1         0.4009470584E+00      0.1137755232E+01
          0                 2           2             4   13     1      -0.6690936503E-03       4   13    1        -0.3969545160E-01      0.1126851722E+00
          0                 3           2             4    7     1      -0.6969197398E-01       4    7    1        -0.3742807042E+01      0.9209110395E+01
          0                 4           2             4    7     1       0.7260501232E-01       5    7    1         0.4007024040E+01      0.9814908775E+01
          0                 5           2             4    7     1      -0.2911193182E-02       4    7    1        -0.1652655202E+00      0.4021050981E+00
          0                 6           1             4    7     1       0.3592277371E-04       4    7    1         0.2096110733E-02      0.5099766410E-02

    ------------------------------------------------
       NWT REQUIRED            6 OUTER ITERATIONS 
       AND A TOTAL OF         11 INNER ITERATIONS.
    ------------------------------------------------

 NO OUTPUT CONTROL FOR STRESS PERIOD   31   TIME STEP   15
 
 SOLVING FOR HEAD 
                                                   Max.-Head-Change                         Max.-Flux-Residual
  Residual-Control   Outer-Iter.   Inner-Iter.     Column Row Layer    Maximum-Head-Change  Column Row Layer    Maximum-Flux-Residual          L2-NORM 
          0                 1           2             4   13     1       0.7131352721E-02       4   13    1         0.4115056198E+00      0.1141534231E+01
          0                 2           2             4   13     1      -0.6866913336E-03       4   13    1        -0.4074110186E-01      0.1130112767E+00
          0                 3           2             4    7     1      -0.6969200996E-01       4    7    1        -0.3742808214E+01      0.9209228087E+01
          0                 4           2             4    7     1       0.7260668382E-01       5    7    1         0.4007025321E+01      0.9814953503E+01
          0                 5           2             4    7     1      -0.2912899631E-02       4    7    1        -0.1653677067E+00      0.4021476656E+00
          0                 6           1             4    7     1       0.3594383000E-04       4    7    1         0.2097434384E-02      0.5100345996E-02

    ------------------------------------------------
       NWT REQUIRED            6 OUTER ITERATIONS 
       AND A TOTAL OF         11 INNER ITERATIONS.
    ------------------------------------------------

 NO OUTPUT CONTROL FOR STRESS PERIOD   31   TIME STEP   16
 
 SOLVING FOR HEAD 
                                                   Max.-Head-Change                         Max.-Flux-Residual
  Residual-Control   Outer-Iter.   Inner-Iter.     Column Row Layer    Maximum-Head-Change  Column Row Layer    Maximum-Flux-Residual          L2-NORM 
          0                 1           2             4   13     1       0.7296057320E-02       4   13    1         0.4210275876E+00      0.1144830948E+01
          0                 2           2             4   13     1      -0.7025584570E-03       4   13    1        -0.4168426929E-01      0.1132721712E+00
          0                 3           2             4    7     1      -0.6969207034E-01       4    7    1        -0.3742810801E+01      0.9209340308E+01
          0                 4           2             4    7     1       0.7260834647E-01       5    7    1         0.4007026843E+01      0.9814998425E+01
          0                 5           2             4    7     1      -0.2914591667E-02       4    7    1        -0.1654690308E+00      0.4021899371E+00
          0                 6           1             4    7     1       0.3596470797E-04       4    7    1         0.2098746870E-02      0.5100917124E-02

    ------------------------------------------------
       NWT REQUIRED            6 OUTER ITERATIONS 
       AND A TOTAL OF         11 INNER ITERATIONS.
    ------------------------------------------------

 NO OUTPUT CONTROL FOR STRESS PERIOD   31   TIME STEP   17
 
 SOLVING FOR HEAD 
                                                   Max.-Head-Change                         Max.-Flux-Residual
  Residual-Control   Outer-Iter.   Inner-Iter.     Column Row Layer    Maximum-Head-Change  Column Row Layer    Maximum-Flux-Residual          L2-NORM 
          0                 1           2             4   13     1       0.7444617720E-02       4   13    1         0.4296187562E+00      0.1147669871E+01
          0                 2           2             4   13     1      -0.7168514049E-03       4   13    1        -0.4253411860E-01      0.1135023874E+00
          0                 3           2             4    7     1      -0.6969215547E-01       4    7    1        -0.3742814816E+01      0.9209447898E+01
          0                 4           2             4    7     1       0.7260999915E-01       5    6    1         0.4007028800E+01      0.9815043259E+01
          0                 5           2             4    7     1      -0.2916268134E-02       4    7    1        -0.1655694234E+00      0.4022318752E+00
          0                 6           1             4    7     1       0.3598539394E-04       4    7    1         0.2100047279E-02      0.5101493911E-02

    ------------------------------------------------
       NWT REQUIRED            6 OUTER ITERATIONS 
       AND A TOTAL OF         11 INNER ITERATIONS.
    ------------------------------------------------

 NO OUTPUT CONTROL FOR STRESS PERIOD   31   TIME STEP   18
 
 SOLVING FOR HEAD 
                                                   Max.-Head-Change                         Max.-Flux-Residual
  Residual-Control   Outer-Iter.   Inner-Iter.     Column Row Layer    Maximum-Head-Change  Column Row Layer    Maximum-Flux-Residual          L2-NORM 
          0                 1           2             4   13     1       0.7578622698E-02       4   13    1         0.4373698079E+00      0.1150107940E+01
          0                 2           2             4   13     1      -0.7297572272E-03       4   13    1        -0.4330164874E-01      0.1136969056E+00
          0                 3           2             4    7     1      -0.6969225124E-01       5    6    1        -0.3742838610E+01      0.9209549664E+01
          0                 4           2             4    7     1       0.7261163113E-01       5    6    1         0.4007031909E+01      0.9815086871E+01
          0                 5           2             4    7     1      -0.2917927401E-02       4    7    1        -0.1656687876E+00      0.4022734067E+00
          0                 6           1             4    7     1       0.3600586798E-04       4    7    1         0.2101334388E-02      0.5102061912E-02

    ------------------------------------------------
       NWT REQUIRED            6 OUTER ITERATIONS 
       AND A TOTAL OF         11 INNER ITERATIONS.
    ------------------------------------------------

 NO OUTPUT CONTROL FOR STRESS PERIOD   31   TIME STEP   19
 
 SOLVING FOR HEAD 
                                                   Max.-Head-Change                         Max.-Flux-Residual
  Residual-Control   Outer-Iter.   Inner-Iter.     Column Row Layer    Maximum-Head-Change  Column Row Layer    Maximum-Flux-Residual          L2-NORM 
          0                 1           2             4   13     1       0.7699317792E-02       4   13    1         0.4443520167E+00      0.1152157486E+01
          0                 2           2             4   13     1      -0.7413720184E-03       4   13    1        -0.4399249668E-01      0.1138566907E+00
          0                 3           2             4    7     1      -0.6969235999E-01       5    6    1        -0.3742883678E+01      0.9209646165E+01
          0                 4           2             4    7     1       0.7261324112E-01       5    6    1         0.4007034588E+01      0.9815127002E+01
          0                 5           2             4    7     1      -0.2919568051E-02       4    7    1        -0.1657670388E+00      0.4023127779E+00
          0                 6           1             4    7     1       0.3602611261E-04       4    7    1         0.2102607074E-02      0.5102604592E-02

    ------------------------------------------------
       NWT REQUIRED            6 OUTER ITERATIONS 
       AND A TOTAL OF         11 INNER ITERATIONS.
    ------------------------------------------------

 NO OUTPUT CONTROL FOR STRESS PERIOD   31   TIME STEP   20
 
 SOLVING FOR HEAD 
                                                   Max.-Head-Change                         Max.-Flux-Residual
  Residual-Control   Outer-Iter.   Inner-Iter.     Column Row Layer    Maximum-Head-Change  Column Row Layer    Maximum-Flux-Residual          L2-NORM 
          0                 1           2             4   13     1       0.7808131634E-02       4   13    1         0.4506471833E+00      0.1153869721E+01
          0                 2           2             4   13     1      -0.7518496745E-03       4   13    1        -0.4461574474E-01      0.1139860334E+00
          0                 3           2             4    7     1      -0.6969249008E-01       5    6    1        -0.3742926879E+01      0.9209739539E+01
          0                 4           2             4    7     1       0.7261484226E-01       5    6    1         0.4007037612E+01      0.9815172236E+01
          0                 5           2             4    7     1      -0.2921190132E-02       4    7    1        -0.1658641779E+00      0.4023551666E+00
          0                 6           1             4    7     1       0.3604612783E-04       4    7    1         0.2103865348E-02      0.5103188054E-02

    ------------------------------------------------
       NWT REQUIRED            6 OUTER ITERATIONS 
       AND A TOTAL OF         11 INNER ITERATIONS.
    ------------------------------------------------

 NO OUTPUT CONTROL FOR STRESS PERIOD   31   TIME STEP   21
 
 SOLVING FOR HEAD 
                                                   Max.-Head-Change                         Max.-Flux-Residual
  Residual-Control   Outer-Iter.   Inner-Iter.     Column Row Layer    Maximum-Head-Change  Column Row Layer    Maximum-Flux-Residual          L2-NORM 
          0                 1           2             4   13     1       0.7906152624E-02       4   13    1         0.4563179628E+00      0.1155263854E+01
          0                 2           2             4   13     1      -0.7612907145E-03       4   13    1        -0.4517733102E-01      0.1140868957E+00
          0                 3           2             4    7     1      -0.6969263064E-01       5    6    1        -0.3742967542E+01      0.9209828022E+01
          0                 4           2             4    7     1       0.7261641988E-01       5    6    1         0.4007040221E+01      0.9815213967E+01
          0                 5           2             4    7     1      -0.2922792152E-02       4    7    1        -0.1659601174E+00      0.4023953671E+00
          0                 6           1             4    7     1       0.3606589527E-04       4    7    1         0.2105108079E-02      0.5103748122E-02

    ------------------------------------------------
       NWT REQUIRED            6 OUTER ITERATIONS 
       AND A TOTAL OF         11 INNER ITERATIONS.
    ------------------------------------------------

 NO OUTPUT CONTROL FOR STRESS PERIOD   31   TIME STEP   22
 
 SOLVING FOR HEAD 
                                                   Max.-Head-Change                         Max.-Flux-Residual
  Residual-Control   Outer-Iter.   Inner-Iter.     Column Row Layer    Maximum-Head-Change  Column Row Layer    Maximum-Flux-Residual          L2-NORM 
          0                 1           2             4   13     1       0.7994579952E-02       4   13    1         0.4614334076E+00      0.1156385173E+01
          0                 2           2             4   13     1      -0.7698103361E-03       4   13    1        -0.4568406754E-01      0.1141636541E+00
          0                 3           2             4    7     1      -0.6969278304E-01       5    6    1        -0.3743006176E+01      0.9209912730E+01
          0                 4           2             4    7     1       0.7261797750E-01       5    6    1         0.4007042687E+01      0.9815255052E+01
          0                 5           2             4    7     1      -0.2924373339E-02       4    7    1        -0.1660548102E+00      0.4024350888E+00
          0                 6           1             4    7     1       0.3608540575E-04       4    7    1         0.2106334673E-02      0.5104305201E-02

    ------------------------------------------------
       NWT REQUIRED            6 OUTER ITERATIONS 
       AND A TOTAL OF         11 INNER ITERATIONS.
    ------------------------------------------------

 NO OUTPUT CONTROL FOR STRESS PERIOD   31   TIME STEP   23
 
 SOLVING FOR HEAD 
                                                   Max.-Head-Change                         Max.-Flux-Residual
  Residual-Control   Outer-Iter.   Inner-Iter.     Column Row Layer    Maximum-Head-Change  Column Row Layer    Maximum-Flux-Residual          L2-NORM 
          0                 1           2             4   13     1       0.8074250979E-02       4   13    1         0.4660417624E+00      0.1157241867E+01
          0                 2           2             4   13     1      -0.7774699384E-03       4   13    1        -0.4613959450E-01      0.1142163021E+00
          0                 3           2             4    7     1      -0.6969294179E-01       5    6    1        -0.3743042679E+01      0.9209993331E+01
          0                 4           2             4    7     1       0.7261951012E-01       5    6    1         0.4007044766E+01      0.9815294867E+01
          0                 5           2             4    7     1      -0.2925933166E-02       4    7    1        -0.1661482253E+00      0.4024742715E+00
          0                 6           1             4    7     1       0.3610465299E-04       4    7    1         0.2107544719E-02      0.5104850926E-02

    ------------------------------------------------
       NWT REQUIRED            6 OUTER ITERATIONS 
       AND A TOTAL OF         11 INNER ITERATIONS.
    ------------------------------------------------

 NO OUTPUT CONTROL FOR STRESS PERIOD   31   TIME STEP   24
 
 SOLVING FOR HEAD 
                                                   Max.-Head-Change                         Max.-Flux-Residual
  Residual-Control   Outer-Iter.   Inner-Iter.     Column Row Layer    Maximum-Head-Change  Column Row Layer    Maximum-Flux-Residual          L2-NORM 
          0                 1           2             4   13     1       0.8146108994E-02       4   13    1         0.4701974489E+00      0.1157860064E+01
          0                 2           2             4   13     1      -0.7844003692E-03       4   13    1        -0.4655168442E-01      0.1142483142E+00
          0                 3           2             4    7     1      -0.6969312100E-01       5    6    1        -0.3743077891E+01      0.9210071744E+01
          0                 4           2             4    7     1       0.7262103075E-01       5    6    1         0.4007047231E+01      0.9815335276E+01
          0                 5           2             4    7     1      -0.2927471267E-02       4    7    1        -0.1662403393E+00      0.4025129927E+00
          0                 6           1             4    7     1       0.3612363183E-04       4    7    1         0.2108737890E-02      0.5105392704E-02

    ------------------------------------------------
       NWT REQUIRED            6 OUTER ITERATIONS 
       AND A TOTAL OF         11 INNER ITERATIONS.
    ------------------------------------------------

 NO OUTPUT CONTROL FOR STRESS PERIOD   31   TIME STEP   25
 
 SOLVING FOR HEAD 
                                                   Max.-Head-Change                         Max.-Flux-Residual
  Residual-Control   Outer-Iter.   Inner-Iter.     Column Row Layer    Maximum-Head-Change  Column Row Layer    Maximum-Flux-Residual          L2-NORM 
          0                 1           2             4   13     1       0.8210981918E-02       4   13    1         0.4739484021E+00      0.1158280631E+01
          0                 2           2             4   13     1      -0.7906318108E-03       4   13    1        -0.4692212597E-01      0.1142614140E+00
          0                 3           2             4    7     1      -0.6969330271E-01       5    6    1        -0.3743111215E+01      0.9210146359E+01
          0                 4           2             4    7     1       0.7262252526E-01       5    6    1         0.4007049325E+01      0.9815374382E+01
          0                 5           2             4    7     1      -0.2928987054E-02       4    7    1        -0.1663311183E+00      0.4025511714E+00
          0                 6           1             4    7     1       0.3614233513E-04       4    7    1         0.2109913780E-02      0.5105940775E-02

    ------------------------------------------------
       NWT REQUIRED            6 OUTER ITERATIONS 
       AND A TOTAL OF         11 INNER ITERATIONS.
    ------------------------------------------------

 NO OUTPUT CONTROL FOR STRESS PERIOD   31   TIME STEP   26
 
 SOLVING FOR HEAD 
                                                   Max.-Head-Change                         Max.-Flux-Residual
  Residual-Control   Outer-Iter.   Inner-Iter.     Column Row Layer    Maximum-Head-Change  Column Row Layer    Maximum-Flux-Residual          L2-NORM 
          0                 1           2             4   13     1       0.8269442545E-02       4   13    1         0.4773275984E+00      0.1158499873E+01
          0                 2           2             4   13     1      -0.7962535135E-03       4   13    1        -0.4725622935E-01      0.1142567249E+00
          0                 3           2             4    7     1      -0.6969349414E-01       5    6    1        -0.3743142880E+01      0.9210218059E+01
          0                 4           2             4    7     1       0.7258295332E-01       5    6    1         0.4007051304E+01      0.9815378245E+01
          0                 5           2             4    7     1      -0.2888915093E-02       4    8    1        -0.1639415887E+00      0.4015587126E+00
          0                 6           1             4    7     1       0.3564788048E-04       4    8    1         0.2079163925E-02      0.5092701851E-02

    ------------------------------------------------
       NWT REQUIRED            6 OUTER ITERATIONS 
       AND A TOTAL OF         11 INNER ITERATIONS.
    ------------------------------------------------

 NO OUTPUT CONTROL FOR STRESS PERIOD   31   TIME STEP   27
 
 SOLVING FOR HEAD 
                                                   Max.-Head-Change                         Max.-Flux-Residual
  Residual-Control   Outer-Iter.   Inner-Iter.     Column Row Layer    Maximum-Head-Change  Column Row Layer    Maximum-Flux-Residual          L2-NORM 
          0                 1           2             4   13     1       0.8322235765E-02       4   13    1         0.4803781220E+00      0.1158556395E+01
          0                 2           2             4   13     1      -0.8013435824E-03       4   13    1        -0.4755863363E-01      0.1142379190E+00
          0                 3           2             4    7     1      -0.6969368818E-01       5    6    1        -0.3743172755E+01      0.9210286326E+01
          0                 4           2             4    7     1       0.7258294720E-01       5    6    1         0.4007052919E+01      0.9815381044E+01
          0                 5           2             4    7     1      -0.2888914849E-02       4    8    1        -0.1639416318E+00      0.4015588645E+00
          0                 6           1             4    7     1       0.3564787735E-04       4    8    1         0.2079164457E-02      0.5092713707E-02

    ------------------------------------------------
       NWT REQUIRED            6 OUTER ITERATIONS 
       AND A TOTAL OF         11 INNER ITERATIONS.
    ------------------------------------------------

 NO OUTPUT CONTROL FOR STRESS PERIOD   31   TIME STEP   28
 
 SOLVING FOR HEAD 
                                                   Max.-Head-Change                         Max.-Flux-Residual
  Residual-Control   Outer-Iter.   Inner-Iter.     Column Row Layer    Maximum-Head-Change  Column Row Layer    Maximum-Flux-Residual          L2-NORM 
          0                 1           2             4   13     1       0.8369916020E-02       4   13    1         0.4831322413E+00      0.1158451777E+01
          0                 2           2             4   13     1      -0.8059171317E-03       4   13    1        -0.4783024202E-01      0.1142041889E+00
          0                 3           2             4    7     1      -0.6969389734E-01       5    6    1        -0.3743201888E+01      0.9210353315E+01
          0                 4           2             4    7     1       0.7258295066E-01       5    6    1         0.4007054958E+01      0.9815384973E+01
          0                 5           2             4    7     1      -0.2888914987E-02       4    8    1        -0.1639416941E+00      0.4015590226E+00
          0                 6           1             4    7     1       0.3564787936E-04       4    8    1         0.2079165249E-02      0.5092708244E-02

    ------------------------------------------------
       NWT REQUIRED            6 OUTER ITERATIONS 
       AND A TOTAL OF         11 INNER ITERATIONS.
    ------------------------------------------------

 NO OUTPUT CONTROL FOR STRESS PERIOD   31   TIME STEP   29
 
 SOLVING FOR HEAD 
                                                   Max.-Head-Change                         Max.-Flux-Residual
  Residual-Control   Outer-Iter.   Inner-Iter.     Column Row Layer    Maximum-Head-Change  Column Row Layer    Maximum-Flux-Residual          L2-NORM 
          0                 1           2             4   13     1       0.8412941365E-02       4   13    1         0.4856163929E+00      0.1158205212E+01
          0                 2           2             4   13     1      -0.8100644219E-03       4   13    1        -0.4807642920E-01      0.1141590240E+00
          0                 3           2             4    7     1      -0.6969410940E-01       5    6    1        -0.3743229407E+01      0.9210417169E+01
          0                 4           2             4    7     1       0.7258294990E-01       5    6    1         0.4007056646E+01      0.9815386181E+01
          0                 5           2             4    7     1      -0.2888914957E-02       4    8    1        -0.1639417443E+00      0.4015788383E+00
          0                 6           1             4    7     1       0.3564787869E-04       4    8    1         0.2079165895E-02      0.5092913548E-02

    ------------------------------------------------
       NWT REQUIRED            6 OUTER ITERATIONS 
       AND A TOTAL OF         11 INNER ITERATIONS.
    ------------------------------------------------

 NO OUTPUT CONTROL FOR STRESS PERIOD   31   TIME STEP   30



 STREAM LISTING     PERIOD     31   STEP       30

 LAYER ROW COL. STREAM  RCH.  FLOW INTO     FLOW TO   FLOW OUT OF   OVRLND.     DIRECT     STREAM       STREAM     STREAM     STREAM   STREAMBED  STREAMBED
                SEG.NO.  NO.  STRM. RCH.    AQUIFER    STRM. RCH.    RUNOFF     PRECIP       ET          HEAD       DEPTH      WIDTH   CONDCTNC.   GRADIENT

   1    1    1     1     1    6.2248E+01  3.7978E-01   6.1868E+01  0.000E+00  0.000E+00  0.000E+00  1.09460E+03  1.553E+00  1.854E+01  8.342E-02  1.518E+00
   1    2    2     1     2    6.1868E+01  5.8816E-01   6.1280E+01  0.000E+00  0.000E+00  0.000E+00  1.08961E+03  1.547E+00  1.848E+01  1.294E-01  1.516E+00
   1    3    3     1     3    6.1280E+01  5.0162E-01   6.0779E+01  0.000E+00  0.000E+00  0.000E+00  1.08396E+03  1.540E+00  1.841E+01  1.105E-01  1.513E+00
   1    3    4     1     4    6.0779E+01  4.6193E-01   6.0317E+01  0.000E+00  0.000E+00  0.000E+00  1.07894E+03  1.534E+00  1.836E+01  1.019E-01  1.511E+00
   1    4    5     2     1    5.8317E+01  3.9026E-01   5.7926E+01  0.000E+00  0.000E+00  0.000E+00  1.07394E+03  2.003E+00  1.200E+01  7.800E-02  1.668E+00
   1    5    6     2     2    5.7926E+01  2.9977E-01   5.7627E+01  0.000E+00  0.000E+00  0.000E+00  1.06851E+03  1.996E+00  1.200E+01  6.000E-02  1.665E+00
   1    6    6     2     3    5.7627E+01  2.9940E-01   5.7327E+01  0.000E+00  0.000E+00  0.000E+00  1.06378E+03  1.990E+00  1.200E+01  6.000E-02  1.663E+00
   1    7    6     2     4    5.7327E+01  2.9902E-01   5.7028E+01  0.000E+00  0.000E+00  0.000E+00  1.05906E+03  1.984E+00  1.200E+01  6.000E-02  1.661E+00
   1    8    6     2     5    5.7028E+01  2.9865E-01   5.6730E+01  0.000E+00  0.000E+00  0.000E+00  1.05434E+03  1.977E+00  1.200E+01  6.000E-02  1.659E+00
   1    3    5     3     1    2.0000E+00  2.8252E-01   1.7175E+00  0.000E+00  0.000E+00  0.000E+00  1.07555E+03  1.909E+00  9.636E+00  7.227E-02  1.955E+00
   1    3    6     3     2    1.7175E+00  2.4905E-01   1.4684E+00  0.000E+00  0.000E+00  0.000E+00  1.07264E+03  1.727E+00  8.909E+00  6.682E-02  1.864E+00
   1    3    7     3     3    1.4684E+00  1.9718E-01   1.2712E+00  0.000E+00  0.000E+00  0.000E+00  1.06987E+03  1.555E+00  8.218E+00  5.547E-02  1.777E+00
   1    4    8     3     4    1.2712E+00  2.2567E-01   1.0456E+00  0.000E+00  0.000E+00  0.000E+00  1.06682E+03  1.364E+00  7.455E+00  6.709E-02  1.682E+00
   1    5    8     3     5    1.0456E+00  1.5790E-01   8.8768E-01  0.000E+00  0.000E+00  0.000E+00  1.06362E+03  1.164E+00  6.655E+00  4.991E-02  1.582E+00
   1    6    8     3     6    8.8768E-01  5.5980E-02   8.3170E-01  0.000E+00  0.000E+00  0.000E+00  1.06158E+03  1.036E+00  6.145E+00  1.844E-02  1.518E+00
   1    5   10     4     1    1.0000E+01  9.0919E-02   9.9091E+00  0.000E+00  0.000E+00  0.000E+00  1.07836E+03  6.368E-01  1.000E+01  2.500E-02  1.212E+00
   1    5    9     4     2    9.9091E+00  1.8158E-01   9.7275E+00  0.000E+00  0.000E+00  0.000E+00  1.07154E+03  6.315E-01  1.000E+01  5.000E-02  1.211E+00
   1    6    8     4     3    9.7275E+00  1.2689E-01   9.6006E+00  0.000E+00  0.000E+00  0.000E+00  1.06381E+03  6.256E-01  1.000E+01  3.500E-02  1.209E+00
   1    6    8     5     1    1.0432E+01  2.2686E-01   1.0205E+01  0.000E+00  0.000E+00  0.000E+00  1.05868E+03  6.790E-01  1.542E+01  6.166E-02  1.226E+00
   1    7    7     5     2    1.0205E+01  2.7894E-01   9.9265E+00  0.000E+00  0.000E+00  0.000E+00  1.05417E+03  6.732E-01  1.519E+01  7.594E-02  1.224E+00
   1    8    7     5     3    9.9265E+00  1.9221E-01   9.7343E+00  0.000E+00  0.000E+00  0.000E+00  1.04992E+03  6.676E-01  1.497E+01  5.241E-02  1.223E+00
   1    8    6     5     4    9.7343E+00  1.3577E-01   9.5985E+00  0.000E+00  0.000E+00  0.000E+00  1.04691E+03  6.637E-01  1.482E+01  3.706E-02  1.221E+00
   1    9    6     6     1    4.3858E+01  2.8245E-01   4.3576E+01  0.000E+00  0.000E+00  0.000E+00  1.04443E+03  1.707E+00  1.200E+01  6.000E-02  1.569E+00
   1   10    7     6     2    4.3576E+01  2.8205E-01   4.3294E+01  0.000E+00  0.000E+00  0.000E+00  1.03988E+03  1.701E+00  1.200E+01  6.000E-02  1.567E+00
   1   11    7     6     3    4.3294E+01  2.8165E-01   4.3012E+01  0.000E+00  0.000E+00  0.000E+00  1.03533E+03  1.694E+00  1.200E+01  6.000E-02  1.565E+00
   1   12    7     6     4    4.3012E+01  2.8126E-01   4.2731E+01  0.000E+00  0.000E+00  0.000E+00  1.03078E+03  1.688E+00  1.200E+01  6.000E-02  1.563E+00
   1   13    7     6     5    4.2731E+01  1.3093E-02   4.2718E+01  0.000E+00  0.000E+00  0.000E+00  1.02759E+03  1.684E+00  1.200E+01  2.400E-02  1.818E-01
   1   14    9     7     1    1.5000E+02  1.3400E+00   1.4866E+02  0.000E+00  0.000E+00  0.000E+00  1.03987E+03  2.288E+00  5.529E+01  5.593E-01  7.986E-01
   1   13    8     7     2    1.4866E+02  1.8448E+00   1.4682E+02  0.000E+00  0.000E+00  0.000E+00  1.03478E+03  2.279E+00  5.526E+01  6.148E-01  1.000E+00
   1   13    7     7     3    1.4682E+02  1.4754E+00   1.4534E+02  0.000E+00  0.000E+00  0.000E+00  1.02969E+03  2.270E+00  5.522E+01  5.584E-01  8.807E-01
   1   13    6     8     1    1.8806E+02  9.9704E-01   1.8706E+02  0.000E+00  0.000E+00  0.000E+00  1.02494E+03  3.063E+00  4.441E+01  4.526E-01  7.343E-01
   1   13    5     8     2    1.8706E+02  2.1758E-01   1.8684E+02  0.000E+00  0.000E+00  0.000E+00  1.01868E+03  3.059E+00  4.436E+01  4.520E-01  1.604E-01
   1   13    4     8     3    1.8684E+02 -2.3520E+00   1.8919E+02  0.000E+00  0.000E+00  0.000E+00  1.01244E+03  3.066E+00  4.446E+01  4.530E+00 -1.731E-01
   1   13    3     8     4    1.8919E+02 -3.6061E+00   1.9280E+02  0.000E+00  0.000E+00  0.000E+00  1.00621E+03  3.084E+00  4.472E+01  4.557E+00 -2.638E-01
   1   13    2     8     5    1.9280E+02 -2.5891E+00   1.9539E+02  0.000E+00  0.000E+00  0.000E+00  9.99978E+02  3.103E+00  4.499E+01  4.584E+00 -1.882E-01
   1   13    1     8     6    1.9539E+02 -2.0206E+00   1.9741E+02  0.000E+00  0.000E+00  0.000E+00  9.94991E+02  3.116E+00  4.519E+01  2.763E+00 -2.438E-01
   1    8    6     9     1    2.2470E+01  0.0000E+00   2.2470E+01  0.000E+00  0.000E+00  0.000E+00  1.08243E+03  3.683E+00  4.000E+00  0.000E+00  2.228E+00
   1    8    5     9     2    2.2470E+01  0.0000E+00   2.2470E+01  0.000E+00  0.000E+00  0.000E+00  1.08193E+03  3.683E+00  4.000E+00  0.000E+00  2.228E+00





UNSATURATED ZONE PACKAGE VOLUMETRIC BUDGET FOR  TIME STEP    30 STRESS PERIOD   31
  ------------------------------------------------------------------------------



     CUMULATIVE VOLUMES      L**3       RATES FOR THIS TIME STEP      L**3/T
     ------------------                 ------------------------

           IN:                                      IN:
           ---                                      ---
        INFILTRATION =  1091275434.1509          INFILTRATION =          23.3179

          OUT:                                     OUT:
          ----                                     ----
              UZF ET =   954982082.7146                UZF ET =          23.3175
        UZF RECHARGE =       73224.0000          UZF RECHARGE =       0.0000E+00

            IN - OUT =   136220127.4362              IN - OUT =       4.1628E-04

          STORAGE:                                 STORAGE:
          --------                                 --------
      STORAGE CHANGE =   136221493.7378        STORAGE CHANGE =       4.1567E-04

 PERCENT DISCREPANCY IS DIFFERENCE BETWEEN IN-OUT MINUS CHANGE IN STORAGE
 DIVIDED BY THE AVERAGE OF IN AND OUT TIMES 100

 PERCENT DISCREPANCY =          -0.00     PERCENT DISCREPANCY =           0.00






1
  VOLUMETRIC BUDGET FOR AGRICULTURAL FIELDS AT  END OF TIME STEP   30, STRESS PERIOD  31
  ------------------------------------------------------------------------------

     CUMULATIVE VOLUMES      L**3       RATES FOR THIS TIME STEP      L**3/T
     ------------------                 ------------------------

           IN:                                      IN:
           ---                                      ---
               AG WELLS  =   333195520.0000                 AG WELLS  =           0.0000
      DIVERSION SEGMENTS =   691199936.0000        DIVERSION SEGMENTS =          22.4700
       IRRIGATION PONDS  =           0.0000         IRRIGATION PONDS  =           0.0000
           GW IRRIGATION =           0.0000             GW IRRIGATION =           0.0000
           SW IRRIGATION =           0.0000             SW IRRIGATION =           0.0000
        SYSTEM LOSSES GW =           0.0000          SYSTEM LOSSES GW =           0.0000
        SYSTEM LOSSES SW =           0.0000          SYSTEM LOSSES SW =           0.0000

                TOTAL IN =  1024395456.0000                  TOTAL IN =          22.4700

          OUT:                                     OUT:
          ----                                     ----
               AG WELLS  =           0.0000                 AG WELLS  =           0.0000
      DIVERSION SEGMENTS =           0.0000        DIVERSION SEGMENTS =           0.0000
       IRRIGATION PONDS  =           0.0000         IRRIGATION PONDS  =           0.0000
           GW IRRIGATION =   333195520.0000             GW IRRIGATION =           0.0000
           SW IRRIGATION =   691215360.0000             SW IRRIGATION =          22.4704
        SYSTEM LOSSES GW =           0.0000          SYSTEM LOSSES GW =           0.0000
        SYSTEM LOSSES SW =           0.0000          SYSTEM LOSSES SW =           0.0000

               TOTAL OUT =  1024410880.0000                 TOTAL OUT =          22.4704

                IN - OUT =      -15424.0000                  IN - OUT =      -4.4823E-04

     PERCENT DISCREPANCY =          -0.00         PERCENT DISCREPANCY =          -0.00



1
  VOLUMETRIC BUDGET FOR ENTIRE MODEL AT END OF TIME STEP   30, STRESS PERIOD  31
  ------------------------------------------------------------------------------

     CUMULATIVE VOLUMES      L**3       RATES FOR THIS TIME STEP      L**3/T
     ------------------                 ------------------------

           IN:                                      IN:
           ---                                      ---
             STORAGE     =   594094016.0000               STORAGE     =           1.4797
       CONSTANT HEAD     =           0.0000         CONSTANT HEAD     =           0.0000
     HEAD DEP BOUNDS     =    22574244.0000       HEAD DEP BOUNDS     =           0.2860
      STREAM LEAKAGE     =   944793664.0000        STREAM LEAKAGE     =          12.9354
        UZF RECHARGE     =       73223.9531          UZF RECHARGE     =           0.0000
               GW ET     =           0.0000                 GW ET     =           0.0000
     SURFACE LEAKAGE     =           0.0000       SURFACE LEAKAGE     =           0.0000
           AG WELLS      =           0.0000             AG WELLS      =           0.0000

                TOTAL IN =  1561535232.0000                  TOTAL IN =          14.7012

          OUT:                                     OUT:
          ----                                     ----
             STORAGE     =   352572512.0000               STORAGE     =           3.8372
       CONSTANT HEAD     =           0.0000         CONSTANT HEAD     =           0.0000
     HEAD DEP BOUNDS     =    22977702.0000       HEAD DEP BOUNDS     =           0.2935
      STREAM LEAKAGE     =   849813504.0000        STREAM LEAKAGE     =          10.5678
        UZF RECHARGE     =           0.0000          UZF RECHARGE     =           0.0000
               GW ET     =     2982784.2500                 GW ET     =       2.5804E-03
     SURFACE LEAKAGE     =           0.0000       SURFACE LEAKAGE     =           0.0000
           AG WELLS      =   333195520.0000             AG WELLS      =           0.0000

               TOTAL OUT =  1561542016.0000                 TOTAL OUT =          14.7010

                IN - OUT =       -6784.0000                  IN - OUT =       1.8787E-04

     PERCENT DISCREPANCY =          -0.00         PERCENT DISCREPANCY =           0.00






         TIME SUMMARY AT END OF TIME STEP   30 IN STRESS PERIOD   31
                    SECONDS     MINUTES      HOURS       DAYS        YEARS
                    -----------------------------------------------------------
   TIME STEP LENGTH  87667.      1461.1      24.352      1.0147     2.77799E-03
 STRESS PERIOD TIME 2.63000E+06  43833.      730.56      30.440     8.33397E-02
         TOTAL TIME 7.89864E+07 1.31644E+06  21941.      914.20      2.5029    
1
1
                            STRESS PERIOD NO.   32, LENGTH =   2630000.    
                            -----------------------------------------------

                              NUMBER OF TIME STEPS =    30

                               MULTIPLIER FOR DELT =     1.000

                            INITIAL TIME STEP SIZE =   87666.66    

 REUSING NON-PARAMETER GHB CELLS FROM LAST STRESS PERIOD

      2 GHB CELLS

 REUSING STREAM SEGMENT DATA FROM LAST STRESS PERIOD



            AREAL INFILTRATION RATE
 READING ON UNIT   19 WITH FORMAT: (FREE)              

            1           2           3           4           5           6           7           8           9          10
 ........................................................................................................................
   1   1.0000E-10  2.0000E-10   0.000       0.000       0.000       0.000       0.000       0.000       0.000       0.000    
   2   2.0000E-10  1.0000E-10  2.0000E-10   0.000       0.000      8.0000E-10  8.0000E-10  5.0000E-10   0.000       0.000    
   3    0.000      5.0000E-10  1.0000E-10  1.0000E-10  8.0000E-10  8.0000E-10  5.0000E-10  5.0000E-10   0.000       0.000    
   4   8.0000E-10  5.0000E-10  1.0000E-10  1.0000E-10  1.0000E-10  1.0000E-10  1.0000E-10  1.0000E-10  2.0000E-10   0.000    
   5   8.0000E-10  5.0000E-10  1.0000E-10  1.0000E-10  1.0000E-10  1.0000E-10  1.0000E-10  1.0000E-10  1.0000E-10  1.0000E-10
   6   8.0000E-10  5.0000E-10  5.0000E-10  2.0000E-10  2.0000E-10  1.0000E-10  1.0000E-10  1.0000E-10  1.0000E-10  5.0000E-10
   7   8.0000E-10  5.0000E-10  5.0000E-10  2.0000E-10  2.0000E-10  1.0000E-10  1.0000E-10  2.0000E-10  2.0000E-10   0.000    
   8    0.000      5.0000E-10  5.0000E-10  2.0000E-10  2.0000E-10  1.0000E-10  1.0000E-10  2.0000E-10  5.0000E-10   0.000    
   9    0.000      5.0000E-10  5.0000E-10  2.0000E-10  2.0000E-10  1.0000E-10  1.0000E-10  2.0000E-10  5.0000E-10   0.000    
  10    0.000      5.0000E-10  5.0000E-10  2.0000E-10  2.0000E-10  1.0000E-10  1.0000E-10  2.0000E-10  5.0000E-10  8.0000E-10
  11    0.000      1.0000E-10  1.0000E-10  1.0000E-10  1.0000E-10  1.0000E-10  1.0000E-10  2.0000E-10  5.0000E-10   0.000    
  12   1.0000E-10  1.0000E-10  1.0000E-10  1.0000E-10  1.0000E-10  1.0000E-10  1.0000E-10  1.0000E-10  2.0000E-10   0.000    
  13   1.0000E-10  1.0000E-10  2.0000E-10  2.0000E-10  2.0000E-10  2.0000E-10  2.0000E-10  1.0000E-10  1.0000E-10   0.000    
  14    0.000      2.0000E-10  5.0000E-10  5.0000E-10  5.0000E-10  5.0000E-10  5.0000E-10  2.0000E-10  1.0000E-10   0.000    
  15    0.000       0.000      8.0000E-10  8.0000E-10  8.0000E-10  8.0000E-10   0.000       0.000       0.000       0.000    

                  ET RATE =  4.000000E-07

 USING ET EXTINCTION DEPTH FROM PREVIOUS STRESS PERIOD. CURRENT PERIOD IS:      32

 USING EXTINCTION WATER CONTENT FROM PREVIOUS STRESS PERIOD. CURRENT PERIOD IS:      32

 USING AIR ENTRY PRESSURE FROM PREVIOUS STRESS PERIOD. CURRENT PERIOD IS:      32

 USING ROOT PRESSURE HEAD FROM PREVIOUS STRESS PERIOD. CURRENT PERIOD IS:      32

 USING ROOT ACTIVITY FROM PREVIOUS STRESS PERIOD. CURRENT PERIOD IS:      32

 PROCESSING AG STRESS PERIOD DATA

 READING AG STRESS PERIOD DATA

 READING IRRIGATION SEGMENT

 READING IRRIGATION WELL

 READING SUPPLEMENTAL WELL

 NO IRRPOND OR REUSING IRRPOND DATA FROM LAST STRESS PERIOD

 END PROCESSING AG STRESS PERIOD DATA OPTIONS
 
 SOLVING FOR HEAD 
                                                   Max.-Head-Change                         Max.-Flux-Residual
  Residual-Control   Outer-Iter.   Inner-Iter.     Column Row Layer    Maximum-Head-Change  Column Row Layer    Maximum-Flux-Residual          L2-NORM 
          0                 1           2             4   13     1      -0.1342861525E-01       4   13    1        -0.7688867988E+00      0.1571318612E+01
          0                 2           2             4    7     1      -0.1423950302E+00       4    7    1        -0.7647411262E+01      0.1872673782E+02
          0                 3           2             4    7     1       0.9667714560E-02       5    7    1         0.5351547274E+00      0.1310056658E+01
          0                 4           2             4    7     1      -0.3846879867E-03       5    7    1        -0.2188789189E-01      0.5358793376E-01
          0                 5           1             4    7     1       0.4743368813E-05       5    7    1         0.2773869874E-03      0.6802854216E-03

    ------------------------------------------------
       NWT REQUIRED            5 OUTER ITERATIONS 
       AND A TOTAL OF          9 INNER ITERATIONS.
    ------------------------------------------------

 NO OUTPUT CONTROL FOR STRESS PERIOD   32   TIME STEP    1
 
 SOLVING FOR HEAD 
                                                   Max.-Head-Change                         Max.-Flux-Residual
  Residual-Control   Outer-Iter.   Inner-Iter.     Column Row Layer    Maximum-Head-Change  Column Row Layer    Maximum-Flux-Residual          L2-NORM 
          0                 1           2             5    8     1       0.8657477507E-02       5    8    1         0.4659837032E+00      0.1288458879E+01
          0                 2           2             7   13     1      -0.3884178204E-02       7   13    1        -0.2155389860E+00      0.2477943968E+00
          0                 3           2             4    7     1      -0.1015679395E+00       4    7    1        -0.5451736425E+01      0.1341248628E+02
          0                 4           2             4    7     1       0.1024854219E+00       5    7    1         0.5654710865E+01      0.1385110185E+02
          0                 5           2             4    7     1      -0.9790731073E-01       4    8    1        -0.5555930655E+01      0.1361756560E+02
          0                 6           2             4    7     1       0.5000479155E-01       5    8    1         0.2914830379E+01      0.7140537516E+01
          0                 7           2             4    7     1       0.7349133060E-03       4    6    1         0.4283795408E-01      0.1051724932E+00
          0                 8           1             4    7     1       0.1079448156E-04       4    6    1         0.6292018716E-03      0.1572613658E-02

    ------------------------------------------------
       NWT REQUIRED            8 OUTER ITERATIONS 
       AND A TOTAL OF         15 INNER ITERATIONS.
    ------------------------------------------------

 NO OUTPUT CONTROL FOR STRESS PERIOD   32   TIME STEP    2
 
 SOLVING FOR HEAD 
                                                   Max.-Head-Change                         Max.-Flux-Residual
  Residual-Control   Outer-Iter.   Inner-Iter.     Column Row Layer    Maximum-Head-Change  Column Row Layer    Maximum-Flux-Residual          L2-NORM 
          0                 1           2             5    8     1       0.9764809178E-02       5    8    1         0.5268534207E+00      0.1428998098E+01
          0                 2           2             7   13     1      -0.3899102636E-02       7   13    1        -0.2163631786E+00      0.2555788308E+00
          0                 3           2             4    7     1      -0.1859069243E+00       4    7    1        -0.9978678910E+01      0.2451821470E+02
          0                 4           2             4    7     1       0.1663418099E+00       5    6    1         0.9178097403E+01      0.2248049717E+02
          0                 5           2             4    7     1      -0.6620944809E-02       4    8    1        -0.3766699943E+00      0.9204809643E+00
          0                 6           1             4    7     1       0.8169944490E-04       4    8    1         0.4777478917E-02      0.1168083889E-01

    ------------------------------------------------
       NWT REQUIRED            6 OUTER ITERATIONS 
       AND A TOTAL OF         11 INNER ITERATIONS.
    ------------------------------------------------

 NO OUTPUT CONTROL FOR STRESS PERIOD   32   TIME STEP    3
 
 SOLVING FOR HEAD 
                                                   Max.-Head-Change                         Max.-Flux-Residual
  Residual-Control   Outer-Iter.   Inner-Iter.     Column Row Layer    Maximum-Head-Change  Column Row Layer    Maximum-Flux-Residual          L2-NORM 
          0                 1           2             5    8     1       0.1020431356E-01       4   13    1         0.5524795949E+00      0.1519879558E+01
          0                 2           2             7   13     1      -0.3913635429E-02       7   13    1        -0.2171657913E+00      0.2609577658E+00
          0                 3           2             4    7     1      -0.1859422258E+00       4    7    1        -0.9980572739E+01      0.2452316119E+02
          0                 4           2             4    7     1       0.1663441053E+00       5    6    1         0.9178222707E+01      0.2248055804E+02
          0                 5           2             4    7     1      -0.6620888815E-02       4    8    1        -0.3760259802E+00      0.9202275533E+00
          0                 6           1             4    7     1       0.8169875152E-04       4    8    1         0.4769309273E-02      0.1167758936E-01

    ------------------------------------------------
       NWT REQUIRED            6 OUTER ITERATIONS 
       AND A TOTAL OF         11 INNER ITERATIONS.
    ------------------------------------------------

 NO OUTPUT CONTROL FOR STRESS PERIOD   32   TIME STEP    4
 
 SOLVING FOR HEAD 
                                                   Max.-Head-Change                         Max.-Flux-Residual
  Residual-Control   Outer-Iter.   Inner-Iter.     Column Row Layer    Maximum-Head-Change  Column Row Layer    Maximum-Flux-Residual          L2-NORM 
          0                 1           2             5    8     1       0.1062321947E-01       4   13    1         0.6078798953E+00      0.1607166169E+01
          0                 2           2             7   13     1      -0.3927784037E-02       7   13    1        -0.2179472145E+00      0.2663211069E+00
          0                 3           2             4    7     1      -0.1859430118E+00       4    7    1        -0.9980613583E+01      0.2452356307E+02
          0                 4           2             4    7     1       0.1663440731E+00       5    6    1         0.9178219880E+01      0.2248031075E+02
          0                 5           2             4    7     1      -0.6620741775E-02       5    8    1        -0.3756483990E+00      0.9199684743E+00
          0                 6           1             4    7     1       0.8165558957E-04       5    8    1         0.4765400904E-02      0.1160261792E-01

    ------------------------------------------------
       NWT REQUIRED            6 OUTER ITERATIONS 
       AND A TOTAL OF         11 INNER ITERATIONS.
    ------------------------------------------------

 NO OUTPUT CONTROL FOR STRESS PERIOD   32   TIME STEP    5
 
 SOLVING FOR HEAD 
                                                   Max.-Head-Change                         Max.-Flux-Residual
  Residual-Control   Outer-Iter.   Inner-Iter.     Column Row Layer    Maximum-Head-Change  Column Row Layer    Maximum-Flux-Residual          L2-NORM 
          0                 1           2             4   13     1       0.1139580431E-01       4   13    1         0.6580286646E+00      0.1690359098E+01
          0                 2           2             7   13     1      -0.3941580391E-02       7   13    1        -0.2187092293E+00      0.2716262848E+00
          0                 3           2             4    7     1      -0.1859437373E+00       4    7    1        -0.9980650950E+01      0.2452393588E+02
          0                 4           2             4    7     1       0.1663440313E+00       5    6    1         0.9178216853E+01      0.2248006812E+02
          0                 5           2             4    7     1      -0.6620782660E-02       5    8    1        -0.3756482774E+00      0.9199446369E+00
          0                 6           1             4    7     1       0.8169744654E-04       5    8    1         0.4765399414E-02      0.1167395831E-01

    ------------------------------------------------
       NWT REQUIRED            6 OUTER ITERATIONS 
       AND A TOTAL OF         11 INNER ITERATIONS.
    ------------------------------------------------

 NO OUTPUT CONTROL FOR STRESS PERIOD   32   TIME STEP    6
 
 SOLVING FOR HEAD 
                                                   Max.-Head-Change                         Max.-Flux-Residual
  Residual-Control   Outer-Iter.   Inner-Iter.     Column Row Layer    Maximum-Head-Change  Column Row Layer    Maximum-Flux-Residual          L2-NORM 
          0                 1           2             4   13     1       0.1218154392E-01       4   13    1         0.7034443309E+00      0.1769307735E+01
          0                 2           2             7   13     1      -0.3955024654E-02       7   13    1        -0.2194518029E+00      0.2767738326E+00
          0                 3           2             4    7     1      -0.1859458116E+00       4    7    1        -0.9980684044E+01      0.2452428905E+02
          0                 4           2             4    7     1       0.1663455823E+00       5    6    1         0.9178213884E+01      0.2248250981E+02
          0                 5           2             4    7     1      -0.6620846004E-02       5    8    1        -0.3756482467E+00      0.9200446715E+00
          0                 6           1             4    7     1       0.8169822931E-04       5    8    1         0.4765399068E-02      0.1167519591E-01

    ------------------------------------------------
       NWT REQUIRED            6 OUTER ITERATIONS 
       AND A TOTAL OF         11 INNER ITERATIONS.
    ------------------------------------------------

 NO OUTPUT CONTROL FOR STRESS PERIOD   32   TIME STEP    7
 
 SOLVING FOR HEAD 
                                                   Max.-Head-Change                         Max.-Flux-Residual
  Residual-Control   Outer-Iter.   Inner-Iter.     Column Row Layer    Maximum-Head-Change  Column Row Layer    Maximum-Flux-Residual          L2-NORM 
          0                 1           2             4   13     1       0.1289381957E-01       4   13    1         0.7445983142E+00      0.1844135024E+01
          0                 2           2             7   13     1      -0.3968119132E-02       7   13    1        -0.2201750785E+00      0.2818020909E+00
          0                 3           2             4    7     1      -0.1859464302E+00       4    7    1        -0.9980715023E+01      0.2452461870E+02
          0                 4           2             4    7     1       0.1663456792E+00       5    7    1         0.9178212991E+01      0.2248250794E+02
          0                 5           2             4    7     1      -0.6620849864E-02       5    8    1        -0.3756481522E+00      0.9200444255E+00
          0                 6           1             4    7     1       0.8169827691E-04       5    8    1         0.4765397843E-02      0.1167516066E-01

    ------------------------------------------------
       NWT REQUIRED            6 OUTER ITERATIONS 
       AND A TOTAL OF         11 INNER ITERATIONS.
    ------------------------------------------------

 NO OUTPUT CONTROL FOR STRESS PERIOD   32   TIME STEP    8
 
 SOLVING FOR HEAD 
                                                   Max.-Head-Change                         Max.-Flux-Residual
  Residual-Control   Outer-Iter.   Inner-Iter.     Column Row Layer    Maximum-Head-Change  Column Row Layer    Maximum-Flux-Residual          L2-NORM 
          0                 1           2             4   13     1       0.1353955356E-01       4   13    1         0.7818931695E+00      0.1914982350E+01
          0                 2           2             7   13     1      -0.3980886522E-02       7   13    1        -0.2208803077E+00      0.2866752284E+00
          0                 3           2             4    7     1      -0.1859469819E+00       4    7    1        -0.9980742169E+01      0.2452492442E+02
          0                 4           2             4    7     1       0.1663457664E+00       5    7    1         0.9178212135E+01      0.2248250519E+02
          0                 5           2             4    7     1      -0.6620853333E-02       5    8    1        -0.3756480532E+00      0.9200441509E+00
          0                 6           1             4    7     1       0.8169831970E-04       5    8    1         0.4765396563E-02      0.1168164765E-01

    ------------------------------------------------
       NWT REQUIRED            6 OUTER ITERATIONS 
       AND A TOTAL OF         11 INNER ITERATIONS.
    ------------------------------------------------

 NO OUTPUT CONTROL FOR STRESS PERIOD   32   TIME STEP    9
 
 SOLVING FOR HEAD 
                                                   Max.-Head-Change                         Max.-Flux-Residual
  Residual-Control   Outer-Iter.   Inner-Iter.     Column Row Layer    Maximum-Head-Change  Column Row Layer    Maximum-Flux-Residual          L2-NORM 
          0                 1           2             4   13     1       0.1412537257E-01       4   13    1         0.8157142040E+00      0.1981980374E+01
          0                 2           2             7   13     1      -0.3993339536E-02       7   13    1        -0.2215681738E+00      0.2913828201E+00
          0                 3           2             4    7     1      -0.1859475051E+00       4    7    1        -0.9980767555E+01      0.2452521307E+02
          0                 4           2             4    7     1       0.1663458591E+00       4    7    1         0.9178214829E+01      0.2248251257E+02
          0                 5           2             4    7     1      -0.6620856949E-02       5    8    1        -0.3756479837E+00      0.9200533056E+00
          0                 6           1             4    7     1       0.8169836697E-04       5    8    1         0.4765395658E-02      0.1167536250E-01

    ------------------------------------------------
       NWT REQUIRED            6 OUTER ITERATIONS 
       AND A TOTAL OF         11 INNER ITERATIONS.
    ------------------------------------------------

 NO OUTPUT CONTROL FOR STRESS PERIOD   32   TIME STEP   10
 
 SOLVING FOR HEAD 
                                                   Max.-Head-Change                         Max.-Flux-Residual
  Residual-Control   Outer-Iter.   Inner-Iter.     Column Row Layer    Maximum-Head-Change  Column Row Layer    Maximum-Flux-Residual          L2-NORM 
          0                 1           2             4   13     1       0.1465704456E-01       4   13    1         0.8463968405E+00      0.2045335042E+01
          0                 2           2             7   13     1      -0.4005475025E-02       7   13    1        -0.2222385047E+00      0.2959201238E+00
          0                 3           2             4    7     1      -0.1859479846E+00       4    7    1        -0.9980790393E+01      0.2452548277E+02
          0                 4           2             4    7     1       0.1663459499E+00       4    7    1         0.9178216436E+01      0.2248251448E+02
          0                 5           2             4    7     1      -0.6620860561E-02       5    8    1        -0.3756479248E+00      0.9200565590E+00
          0                 6           1             4    7     1       0.8169841178E-04       5    8    1         0.4765394874E-02      0.1167542516E-01

    ------------------------------------------------
       NWT REQUIRED            6 OUTER ITERATIONS 
       AND A TOTAL OF         11 INNER ITERATIONS.
    ------------------------------------------------

 NO OUTPUT CONTROL FOR STRESS PERIOD   32   TIME STEP   11
 
 SOLVING FOR HEAD 
                                                   Max.-Head-Change                         Max.-Flux-Residual
  Residual-Control   Outer-Iter.   Inner-Iter.     Column Row Layer    Maximum-Head-Change  Column Row Layer    Maximum-Flux-Residual          L2-NORM 
          0                 1           2             4   13     1       0.1513977686E-01       4   13    1         0.8742437274E+00      0.2105226408E+01
          0                 2           2             7   13     1      -0.4017305687E-02       7   13    1        -0.2228919978E+00      0.3002846113E+00
          0                 3           2             4    7     1      -0.1859484406E+00       4    7    1        -0.9980811780E+01      0.2452573867E+02
          0                 4           2             4    7     1       0.1663460464E+00       4    7    1         0.9178218299E+01      0.2248251436E+02
          0                 5           2             4    7     1      -0.6620864401E-02       5    8    1        -0.3756478932E+00      0.9200563987E+00
          0                 6           1             4    7     1       0.8169845916E-04       5    8    1         0.4765394436E-02      0.1167539996E-01

    ------------------------------------------------
       NWT REQUIRED            6 OUTER ITERATIONS 
       AND A TOTAL OF         11 INNER ITERATIONS.
    ------------------------------------------------

 NO OUTPUT CONTROL FOR STRESS PERIOD   32   TIME STEP   12
 
 SOLVING FOR HEAD 
                                                   Max.-Head-Change                         Max.-Flux-Residual
  Residual-Control   Outer-Iter.   Inner-Iter.     Column Row Layer    Maximum-Head-Change  Column Row Layer    Maximum-Flux-Residual          L2-NORM 
          0                 1           2             4   13     1       0.1557835080E-01       4   13    1         0.8995326986E+00      0.2161874836E+01
          0                 2           2             7   13     1      -0.4028834343E-02       7   13    1        -0.2235288010E+00      0.3044774852E+00
          0                 3           2             4    7     1      -0.1859488566E+00       4    7    1        -0.9980830848E+01      0.2452597816E+02
          0                 4           2             4    7     1       0.1663461387E+00       4    7    1         0.9178219880E+01      0.2248251402E+02
          0                 5           2             4    7     1      -0.6620865976E-02       5    8    1        -0.3756477463E+00      0.9200559462E+00
          0                 6           1             4    7     1       0.8169847877E-04       5    8    1         0.4765392539E-02      0.1167537396E-01

    ------------------------------------------------
       NWT REQUIRED            6 OUTER ITERATIONS 
       AND A TOTAL OF         11 INNER ITERATIONS.
    ------------------------------------------------

 NO OUTPUT CONTROL FOR STRESS PERIOD   32   TIME STEP   13
 
 SOLVING FOR HEAD 
                                                   Max.-Head-Change                         Max.-Flux-Residual
  Residual-Control   Outer-Iter.   Inner-Iter.     Column Row Layer    Maximum-Head-Change  Column Row Layer    Maximum-Flux-Residual          L2-NORM 
          0                 1           2             4   13     1       0.1597706198E-01       4   13    1         0.9225133301E+00      0.2215481362E+01
          0                 2           2             7   13     1      -0.4040093777E-02       7   13    1        -0.2241507392E+00      0.3085034467E+00
          0                 3           2             4    7     1      -0.1859492188E+00       4    7    1        -0.9980846876E+01      0.2452620074E+02
          0                 4           2             4    7     1       0.1663462129E+00       4    7    1         0.9178220413E+01      0.2248251160E+02
          0                 5           2             4    7     1      -0.6620871028E-02       5    8    1        -0.3756478090E+00      0.9200559971E+00
          0                 6           1             4    7     1       0.8169854060E-04       5    8    1         0.4765393309E-02      0.1167535089E-01

    ------------------------------------------------
       NWT REQUIRED            6 OUTER ITERATIONS 
       AND A TOTAL OF         11 INNER ITERATIONS.
    ------------------------------------------------

 NO OUTPUT CONTROL FOR STRESS PERIOD   32   TIME STEP   14
 
 SOLVING FOR HEAD 
                                                   Max.-Head-Change                         Max.-Flux-Residual
  Residual-Control   Outer-Iter.   Inner-Iter.     Column Row Layer    Maximum-Head-Change  Column Row Layer    Maximum-Flux-Residual          L2-NORM 
          0                 1           2             4   13     1       0.1633950945E-01       4   13    1         0.9433945264E+00      0.2266231429E+01
          0                 2           2             7   13     1      -0.4051072759E-02       7   13    1        -0.2247571722E+00      0.3123673273E+00
          0                 3           2             4    7     1      -0.1859495805E+00       4    7    1        -0.9980862734E+01      0.2452641394E+02
          0                 4           2             4    7     1       0.1663463091E+00       4    7    1         0.9178222127E+01      0.2248251245E+02
          0                 5           2             4    7     1      -0.6620872758E-02       5    8    1        -0.3756476949E+00      0.9200555724E+00
          0                 6           1             4    7     1       0.8169856199E-04       5    8    1         0.4765391834E-02      0.1167531754E-01

    ------------------------------------------------
       NWT REQUIRED            6 OUTER ITERATIONS 
       AND A TOTAL OF         11 INNER ITERATIONS.
    ------------------------------------------------

 NO OUTPUT CONTROL FOR STRESS PERIOD   32   TIME STEP   15
 
 SOLVING FOR HEAD 
                                                   Max.-Head-Change                         Max.-Flux-Residual
  Residual-Control   Outer-Iter.   Inner-Iter.     Column Row Layer    Maximum-Head-Change  Column Row Layer    Maximum-Flux-Residual          L2-NORM 
          0                 1           2             4   13     1       0.1666938033E-01       4   13    1         0.9623898999E+00      0.2314319850E+01
          0                 2           2             7   13     1      -0.4061795194E-02       7   13    1        -0.2253494229E+00      0.3160742296E+00
          0                 3           2             4    7     1      -0.1859498911E+00       4    7    1        -0.9980875721E+01      0.2452661251E+02
          0                 4           2             4    7     1       0.1663463872E+00       4    7    1         0.9178222805E+01      0.2248251115E+02
          0                 5           2             4    7     1      -0.6620877968E-02       5    8    1        -0.3756477886E+00      0.9200556787E+00
          0                 6           1             4    7     1       0.8169862629E-04       5    8    1         0.4765392985E-02      0.1167529709E-01

    ------------------------------------------------
       NWT REQUIRED            6 OUTER ITERATIONS 
       AND A TOTAL OF         11 INNER ITERATIONS.
    ------------------------------------------------

 NO OUTPUT CONTROL FOR STRESS PERIOD   32   TIME STEP   16
 
 SOLVING FOR HEAD 
                                                   Max.-Head-Change                         Max.-Flux-Residual
  Residual-Control   Outer-Iter.   Inner-Iter.     Column Row Layer    Maximum-Head-Change  Column Row Layer    Maximum-Flux-Residual          L2-NORM 
          0                 1           2             4   13     1       0.1696951348E-01       4   13    1         0.9796683836E+00      0.2359918626E+01
          0                 2           2             7   13     1      -0.4072241308E-02       7   13    1        -0.2259264094E+00      0.3196275476E+00
          0                 3           2             4    7     1      -0.1859501877E+00       4    7    1        -0.9980887843E+01      0.2452680058E+02
          0                 4           2             4    7     1       0.1663464690E+00       4    7    1         0.9178223661E+01      0.2248251093E+02
          0                 5           2             4    7     1      -0.6620881223E-02       5    8    1        -0.3756477813E+00      0.9200555331E+00
          0                 6           1             4    7     1       0.8169866662E-04       5    8    1         0.4765392866E-02      0.1167527839E-01

    ------------------------------------------------
       NWT REQUIRED            6 OUTER ITERATIONS 
       AND A TOTAL OF         11 INNER ITERATIONS.
    ------------------------------------------------

 NO OUTPUT CONTROL FOR STRESS PERIOD   32   TIME STEP   17
 
 SOLVING FOR HEAD 
                                                   Max.-Head-Change                         Max.-Flux-Residual
  Residual-Control   Outer-Iter.   Inner-Iter.     Column Row Layer    Maximum-Head-Change  Column Row Layer    Maximum-Flux-Residual          L2-NORM 
          0                 1           2             4   13     1       0.1724295754E-01       4   13    1         0.9954029690E+00      0.2403197350E+01
          0                 2           2             7   13     1      -0.4082448445E-02       7   13    1        -0.2264901842E+00      0.3230392888E+00
          0                 3           2             4    7     1      -0.1859504716E+00       4    7    1        -0.9980899188E+01      0.2452697987E+02
          0                 4           2             4    7     1       0.1663465545E+00       4    7    1         0.9178224700E+01      0.2248251136E+02
          0                 5           2             4    7     1      -0.6620882525E-02       5    8    1        -0.3756476725E+00      0.9200551346E+00
          0                 6           1             4    7     1       0.8169868286E-04       5    8    1         0.4765391451E-02      0.1167524653E-01

    ------------------------------------------------
       NWT REQUIRED            6 OUTER ITERATIONS 
       AND A TOTAL OF         11 INNER ITERATIONS.
    ------------------------------------------------

 NO OUTPUT CONTROL FOR STRESS PERIOD   32   TIME STEP   18
 
 SOLVING FOR HEAD 
                                                   Max.-Head-Change                         Max.-Flux-Residual
  Residual-Control   Outer-Iter.   Inner-Iter.     Column Row Layer    Maximum-Head-Change  Column Row Layer    Maximum-Flux-Residual          L2-NORM 
          0                 1           2             4   13     1       0.1749203658E-01       4   13    1         0.1009728547E+01      0.2444300947E+01
          0                 2           2             7   13     1      -0.4092426601E-02       7   13    1        -0.2270413170E+00      0.3263111072E+00
          0                 3           2             4    7     1      -0.1859507088E+00       4    7    1        -0.9980907931E+01      0.2452714640E+02
          0                 4           2             4    7     1       0.1663466219E+00       4    7    1         0.9178224723E+01      0.2248250961E+02
          0                 5           2             4    7     1      -0.6620887309E-02       5    8    1        -0.3756477698E+00      0.9200552158E+00
          0                 6           1             4    7     1       0.8169874178E-04       5    8    1         0.4765392655E-02      0.1167522298E-01

    ------------------------------------------------
       NWT REQUIRED            6 OUTER ITERATIONS 
       AND A TOTAL OF         11 INNER ITERATIONS.
    ------------------------------------------------

 NO OUTPUT CONTROL FOR STRESS PERIOD   32   TIME STEP   19
 
 SOLVING FOR HEAD 
                                                   Max.-Head-Change                         Max.-Flux-Residual
  Residual-Control   Outer-Iter.   Inner-Iter.     Column Row Layer    Maximum-Head-Change  Column Row Layer    Maximum-Flux-Residual          L2-NORM 
          0                 1           2             4   13     1       0.1771912417E-01       4   13    1         0.1022783054E+01      0.2483392547E+01
          0                 2           2             7   13     1      -0.4102148033E-02       7   13    1        -0.2275782465E+00      0.3294513237E+00
          0                 3           2             4    7     1      -0.1859509536E+00       4    7    1        -0.9980917008E+01      0.2452730784E+02
          0                 4           2             4    7     1       0.1663467008E+00       4    7    1         0.9178225365E+01      0.2248250970E+02
          0                 5           2             4    7     1      -0.6620890447E-02       5    8    1        -0.3756477816E+00      0.9200550992E+00
          0                 6           1             4    7     1       0.8169878042E-04       5    8    1         0.4765392776E-02      0.1167520613E-01

    ------------------------------------------------
       NWT REQUIRED            6 OUTER ITERATIONS 
       AND A TOTAL OF         11 INNER ITERATIONS.
    ------------------------------------------------

 NO OUTPUT CONTROL FOR STRESS PERIOD   32   TIME STEP   20
 
 SOLVING FOR HEAD 
                                                   Max.-Head-Change                         Max.-Flux-Residual
  Residual-Control   Outer-Iter.   Inner-Iter.     Column Row Layer    Maximum-Head-Change  Column Row Layer    Maximum-Flux-Residual          L2-NORM 
          0                 1           2             4   13     1       0.1792637965E-01       4   13    1         0.1034691461E+01      0.2520595537E+01
          0                 2           2             7   13     1      -0.4111655388E-02       7   13    1        -0.2281033385E+00      0.3324670059E+00
          0                 3           2             4    7     1      -0.1859511708E+00       4    7    1        -0.9980924528E+01      0.2452745980E+02
          0                 4           2             4    7     1       0.1663467779E+00       4    7    1         0.9178225898E+01      0.2248250980E+02
          0                 5           2             4    7     1      -0.6620893514E-02       5    8    1        -0.3756477968E+00      0.9200549670E+00
          0                 6           1             4    7     1       0.8169881795E-04       5    8    1         0.4765392921E-02      0.1167518233E-01

    ------------------------------------------------
       NWT REQUIRED            6 OUTER ITERATIONS 
       AND A TOTAL OF         11 INNER ITERATIONS.
    ------------------------------------------------

 NO OUTPUT CONTROL FOR STRESS PERIOD   32   TIME STEP   21
 
 SOLVING FOR HEAD 
                                                   Max.-Head-Change                         Max.-Flux-Residual
  Residual-Control   Outer-Iter.   Inner-Iter.     Column Row Layer    Maximum-Head-Change  Column Row Layer    Maximum-Flux-Residual          L2-NORM 
          0                 1           2             4   13     1       0.1811563124E-01       4   13    1         0.1045559829E+01      0.2556042360E+01
          0                 2           2             7   13     1      -0.4120939618E-02       7   13    1        -0.2286161084E+00      0.3353626790E+00
          0                 3           2             4    7     1      -0.1859513808E+00       4    7    1        -0.9980931610E+01      0.2452760534E+02
          0                 4           2             4    7     1       0.1663468609E+00       4    7    1         0.9178226758E+01      0.2248251097E+02
          0                 5           2             4    7     1      -0.6620896819E-02       5    8    1        -0.3756478324E+00      0.9200549117E+00
          0                 6           1             4    7     1       0.8169885917E-04       5    8    1         0.4765393341E-02      0.1167516975E-01

    ------------------------------------------------
       NWT REQUIRED            6 OUTER ITERATIONS 
       AND A TOTAL OF         11 INNER ITERATIONS.
    ------------------------------------------------

 NO OUTPUT CONTROL FOR STRESS PERIOD   32   TIME STEP   22
 
 SOLVING FOR HEAD 
                                                   Max.-Head-Change                         Max.-Flux-Residual
  Residual-Control   Outer-Iter.   Inner-Iter.     Column Row Layer    Maximum-Head-Change  Column Row Layer    Maximum-Flux-Residual          L2-NORM 
          0                 1           2             4   13     1       0.1828843094E-01       4   13    1         0.1055478227E+01      0.2589858288E+01
          0                 2           2             7   13     1      -0.4130021594E-02       7   13    1        -0.2291176849E+00      0.3381508486E+00
          0                 3           2             4    7     1      -0.1859515651E+00       4    7    1        -0.9980937252E+01      0.2452774263E+02
          0                 4           2             4    7     1       0.1663469292E+00       4    7    1         0.9178226801E+01      0.2248251037E+02
          0                 5           2             4    7     1      -0.6620899537E-02       5    8    1        -0.3756478411E+00      0.9200547630E+00
          0                 6           1             4    7     1       0.8169889244E-04       5    8    1         0.4765393423E-02      0.1167514124E-01

    ------------------------------------------------
       NWT REQUIRED            6 OUTER ITERATIONS 
       AND A TOTAL OF         11 INNER ITERATIONS.
    ------------------------------------------------

 NO OUTPUT CONTROL FOR STRESS PERIOD   32   TIME STEP   23
 
 SOLVING FOR HEAD 
                                                   Max.-Head-Change                         Max.-Flux-Residual
  Residual-Control   Outer-Iter.   Inner-Iter.     Column Row Layer    Maximum-Head-Change  Column Row Layer    Maximum-Flux-Residual          L2-NORM 
          0                 1           2             4   13     1       0.1844637876E-01       4   13    1         0.1064539246E+01      0.2622128339E+01
          0                 2           2             7   13     1      -0.4138895075E-02       7   13    1        -0.2296077329E+00      0.3408311798E+00
          0                 3           2             4    7     1      -0.1859517439E+00       4    7    1        -0.9980942562E+01      0.2452787407E+02
          0                 4           2             4    7     1       0.1663470035E+00       4    7    1         0.9178227179E+01      0.2248251082E+02
          0                 5           2             4    7     1      -0.6620902494E-02       5    8    1        -0.3756478692E+00      0.9200546712E+00
          0                 6           1             4    7     1       0.8169892929E-04       5    8    1         0.4765393737E-02      0.1167511810E-01

    ------------------------------------------------
       NWT REQUIRED            6 OUTER ITERATIONS 
       AND A TOTAL OF         11 INNER ITERATIONS.
    ------------------------------------------------

 NO OUTPUT CONTROL FOR STRESS PERIOD   32   TIME STEP   24
 
 SOLVING FOR HEAD 
                                                   Max.-Head-Change                         Max.-Flux-Residual
  Residual-Control   Outer-Iter.   Inner-Iter.     Column Row Layer    Maximum-Head-Change  Column Row Layer    Maximum-Flux-Residual          L2-NORM 
          0                 1           2             4   13     1       0.1859092973E-01       4   13    1         0.1072827283E+01      0.2652974566E+01
          0                 2           2             7   13     1      -0.4147545744E-02       7   13    1        -0.2300854633E+00      0.3434083808E+00
          0                 3           2             4    7     1      -0.1859519339E+00       4    7    1        -0.9980948435E+01      0.2452800310E+02
          0                 4           2             4    7     1       0.1663470892E+00       4    7    1         0.9178228192E+01      0.2248251302E+02
          0                 5           2             4    7     1      -0.6620903804E-02       5    8    1        -0.3756478097E+00      0.9200543612E+00
          0                 6           1             4    7     1       0.8169894509E-04       5    8    1         0.4765392952E-02      0.1167511228E-01

    ------------------------------------------------
       NWT REQUIRED            6 OUTER ITERATIONS 
       AND A TOTAL OF         11 INNER ITERATIONS.
    ------------------------------------------------

 NO OUTPUT CONTROL FOR STRESS PERIOD   32   TIME STEP   25
 
 SOLVING FOR HEAD 
                                                   Max.-Head-Change                         Max.-Flux-Residual
  Residual-Control   Outer-Iter.   Inner-Iter.     Column Row Layer    Maximum-Head-Change  Column Row Layer    Maximum-Flux-Residual          L2-NORM 
          0                 1           2             4   13     1       0.1872316295E-01       4   13    1         0.1080404700E+01      0.2682487434E+01
          0                 2           2             7   13     1      -0.4156032447E-02       7   13    1        -0.2305541421E+00      0.3458924146E+00
          0                 3           2             4    7     1      -0.1859520834E+00       4    7    1        -0.9980952103E+01      0.2452812257E+02
          0                 4           2             4    7     1       0.1663471569E+00       4    7    1         0.9178228216E+01      0.2248251300E+02
          0                 5           2             4    7     1      -0.6620908601E-02       5    8    1        -0.3756479530E+00      0.9200545352E+00
          0                 6           1             4    7     1       0.8169900479E-04       5    8    1         0.4765394750E-02      0.1167507304E-01

    ------------------------------------------------
       NWT REQUIRED            6 OUTER ITERATIONS 
       AND A TOTAL OF         11 INNER ITERATIONS.
    ------------------------------------------------

 NO OUTPUT CONTROL FOR STRESS PERIOD   32   TIME STEP   26
 
 SOLVING FOR HEAD 
                                                   Max.-Head-Change                         Max.-Flux-Residual
  Residual-Control   Outer-Iter.   Inner-Iter.     Column Row Layer    Maximum-Head-Change  Column Row Layer    Maximum-Flux-Residual          L2-NORM 
          0                 1           2             4   13     1       0.1884442748E-01       4   13    1         0.1087349734E+01      0.2710740743E+01
          0                 2           2             7   13     1      -0.4164309161E-02       7   13    1        -0.2310111977E+00      0.3482850660E+00
          0                 3           2             4    7     1      -0.1859522293E+00       4    7    1        -0.9980955560E+01      0.2452823752E+02
          0                 4           2             4    7     1       0.1663472285E+00       4    7    1         0.9178228463E+01      0.2248251366E+02
          0                 5           2             4    7     1      -0.6620911447E-02       5    8    1        -0.3756479904E+00      0.9200544583E+00
          0                 6           1             4    7     1       0.8169903929E-04       5    8    1         0.4765395173E-02      0.1167505773E-01

    ------------------------------------------------
       NWT REQUIRED            6 OUTER ITERATIONS 
       AND A TOTAL OF         11 INNER ITERATIONS.
    ------------------------------------------------

 NO OUTPUT CONTROL FOR STRESS PERIOD   32   TIME STEP   27
 
 SOLVING FOR HEAD 
                                                   Max.-Head-Change                         Max.-Flux-Residual
  Residual-Control   Outer-Iter.   Inner-Iter.     Column Row Layer    Maximum-Head-Change  Column Row Layer    Maximum-Flux-Residual          L2-NORM 
          0                 1           2             4   13     1       0.1895552368E-01       4   13    1         0.1093708754E+01      0.2737825281E+01
          0                 2           2             7   13     1      -0.4172418485E-02       7   13    1        -0.2314590155E+00      0.3505938025E+00
          0                 3           2             4    7     1      -0.1859523704E+00       4    7    1        -0.9980958733E+01      0.2452834835E+02
          0                 4           2             4    7     1       0.1663472930E+00       4    7    1         0.9178228333E+01      0.2248251359E+02
          0                 5           2             4    7     1      -0.6620914015E-02       5    8    1        -0.3756480165E+00      0.9200543478E+00
          0                 6           1             4    7     1       0.8169907133E-04       5    8    1         0.4765395465E-02      0.1167504004E-01

    ------------------------------------------------
       NWT REQUIRED            6 OUTER ITERATIONS 
       AND A TOTAL OF         11 INNER ITERATIONS.
    ------------------------------------------------

 NO OUTPUT CONTROL FOR STRESS PERIOD   32   TIME STEP   28
 
 SOLVING FOR HEAD 
                                                   Max.-Head-Change                         Max.-Flux-Residual
  Residual-Control   Outer-Iter.   Inner-Iter.     Column Row Layer    Maximum-Head-Change  Column Row Layer    Maximum-Flux-Residual          L2-NORM 
          0                 1           2             4   13     1       0.1905740455E-01       4   13    1         0.1099536604E+01      0.2763806734E+01
          0                 2           2             7   13     1      -0.4180329525E-02       7   13    1        -0.2318958559E+00      0.3528198823E+00
          0                 3           2             4    7     1      -0.1859525088E+00       4    7    1        -0.9980961756E+01      0.2452845542E+02
          0                 4           2             4    7     1       0.1663473635E+00       4    7    1         0.9178228550E+01      0.2248251449E+02
          0                 5           2             4    7     1      -0.6620916820E-02       5    8    1        -0.3756480602E+00      0.9200542852E+00
          0                 6           1             4    7     1       0.8169910583E-04       5    8    1         0.4765395989E-02      0.1167502355E-01

    ------------------------------------------------
       NWT REQUIRED            6 OUTER ITERATIONS 
       AND A TOTAL OF         11 INNER ITERATIONS.
    ------------------------------------------------

 NO OUTPUT CONTROL FOR STRESS PERIOD   32   TIME STEP   29
 
 SOLVING FOR HEAD 
                                                   Max.-Head-Change                         Max.-Flux-Residual
  Residual-Control   Outer-Iter.   Inner-Iter.     Column Row Layer    Maximum-Head-Change  Column Row Layer    Maximum-Flux-Residual          L2-NORM 
          0                 1           2             4   13     1       0.1915102089E-01       4   13    1         0.1104888623E+01      0.2788761781E+01
          0                 2           2             7   13     1      -0.4188086151E-02       7   13    1        -0.2323241597E+00      0.3549715419E+00
          0                 3           2             4    7     1      -0.1859526440E+00       4    7    1        -0.9980964600E+01      0.2452855883E+02
          0                 4           2             4    7     1       0.1663474399E+00       4    7    1         0.9178229112E+01      0.2248251638E+02
          0                 5           2             4    7     1      -0.6620919863E-02       5    8    1        -0.3756481214E+00      0.9200542661E+00
          0                 6           1             4    7     1       0.8169914336E-04       5    8    1         0.4765396714E-02      0.1167500967E-01

    ------------------------------------------------
       NWT REQUIRED            6 OUTER ITERATIONS 
       AND A TOTAL OF         11 INNER ITERATIONS.
    ------------------------------------------------

 NO OUTPUT CONTROL FOR STRESS PERIOD   32   TIME STEP   30



 STREAM LISTING     PERIOD     32   STEP       30

 LAYER ROW COL. STREAM  RCH.  FLOW INTO     FLOW TO   FLOW OUT OF   OVRLND.     DIRECT     STREAM       STREAM     STREAM     STREAM   STREAMBED  STREAMBED
                SEG.NO.  NO.  STRM. RCH.    AQUIFER    STRM. RCH.    RUNOFF     PRECIP       ET          HEAD       DEPTH      WIDTH   CONDCTNC.   GRADIENT

   1    1    1     1     1    5.6248E+01  3.5874E-01   5.5890E+01  0.000E+00  0.000E+00  0.000E+00  1.09453E+03  1.479E+00  1.780E+01  8.009E-02  1.493E+00
   1    2    2     1     2    5.5890E+01  5.5549E-01   5.5334E+01  0.000E+00  0.000E+00  0.000E+00  1.08953E+03  1.473E+00  1.774E+01  1.242E-01  1.491E+00
   1    3    3     1     3    5.5334E+01  4.7367E-01   5.4860E+01  0.000E+00  0.000E+00  0.000E+00  1.08389E+03  1.467E+00  1.767E+01  1.060E-01  1.489E+00
   1    3    4     1     4    5.4860E+01  4.3612E-01   5.4424E+01  0.000E+00  0.000E+00  0.000E+00  1.07887E+03  1.461E+00  1.762E+01  9.777E-02  1.487E+00
   1    4    5     2     1    5.2424E+01  3.8056E-01   5.2044E+01  0.000E+00  0.000E+00  0.000E+00  1.07381E+03  1.879E+00  1.200E+01  7.800E-02  1.626E+00
   1    5    6     2     2    5.2044E+01  2.9230E-01   5.1751E+01  0.000E+00  0.000E+00  0.000E+00  1.06838E+03  1.872E+00  1.200E+01  6.000E-02  1.624E+00
   1    6    6     2     3    5.1751E+01  2.9192E-01   5.1459E+01  0.000E+00  0.000E+00  0.000E+00  1.06366E+03  1.865E+00  1.200E+01  6.000E-02  1.622E+00
   1    7    6     2     4    5.1459E+01  2.9154E-01   5.1168E+01  0.000E+00  0.000E+00  0.000E+00  1.05893E+03  1.859E+00  1.200E+01  6.000E-02  1.620E+00
   1    8    6     2     5    5.1168E+01  2.9116E-01   5.0877E+01  0.000E+00  0.000E+00  0.000E+00  1.05421E+03  1.853E+00  1.200E+01  6.000E-02  1.618E+00
   1    3    5     3     1    2.0000E+00  2.8252E-01   1.7175E+00  0.000E+00  0.000E+00  0.000E+00  1.07555E+03  1.909E+00  9.636E+00  7.227E-02  1.955E+00
   1    3    6     3     2    1.7175E+00  2.4905E-01   1.4684E+00  0.000E+00  0.000E+00  0.000E+00  1.07264E+03  1.727E+00  8.909E+00  6.682E-02  1.864E+00
   1    3    7     3     3    1.4684E+00  1.9718E-01   1.2712E+00  0.000E+00  0.000E+00  0.000E+00  1.06987E+03  1.555E+00  8.218E+00  5.547E-02  1.777E+00
   1    4    8     3     4    1.2712E+00  2.2567E-01   1.0456E+00  0.000E+00  0.000E+00  0.000E+00  1.06682E+03  1.364E+00  7.455E+00  6.709E-02  1.682E+00
   1    5    8     3     5    1.0456E+00  1.5790E-01   8.8768E-01  0.000E+00  0.000E+00  0.000E+00  1.06362E+03  1.164E+00  6.655E+00  4.991E-02  1.582E+00
   1    6    8     3     6    8.8768E-01  5.5980E-02   8.3170E-01  0.000E+00  0.000E+00  0.000E+00  1.06158E+03  1.036E+00  6.145E+00  1.844E-02  1.518E+00
   1    5   10     4     1    1.0000E+01  9.0919E-02   9.9091E+00  0.000E+00  0.000E+00  0.000E+00  1.07836E+03  6.368E-01  1.000E+01  2.500E-02  1.212E+00
   1    5    9     4     2    9.9091E+00  1.8158E-01   9.7275E+00  0.000E+00  0.000E+00  0.000E+00  1.07154E+03  6.315E-01  1.000E+01  5.000E-02  1.211E+00
   1    6    8     4     3    9.7275E+00  1.2689E-01   9.6006E+00  0.000E+00  0.000E+00  0.000E+00  1.06381E+03  6.256E-01  1.000E+01  3.500E-02  1.209E+00
   1    6    8     5     1    1.0432E+01  2.2686E-01   1.0205E+01  0.000E+00  0.000E+00  0.000E+00  1.05868E+03  6.790E-01  1.542E+01  6.166E-02  1.226E+00
   1    7    7     5     2    1.0205E+01  2.7894E-01   9.9265E+00  0.000E+00  0.000E+00  0.000E+00  1.05417E+03  6.732E-01  1.519E+01  7.594E-02  1.224E+00
   1    8    7     5     3    9.9265E+00  1.9221E-01   9.7343E+00  0.000E+00  0.000E+00  0.000E+00  1.04992E+03  6.676E-01  1.497E+01  5.241E-02  1.223E+00
   1    8    6     5     4    9.7343E+00  1.3577E-01   9.5985E+00  0.000E+00  0.000E+00  0.000E+00  1.04691E+03  6.637E-01  1.482E+01  3.706E-02  1.221E+00
   1    9    6     6     1    9.5985E+00  2.2097E-01   9.3776E+00  0.000E+00  0.000E+00  0.000E+00  1.04341E+03  6.828E-01  1.200E+01  6.000E-02  1.228E+00
   1   10    7     6     2    9.3776E+00  2.2039E-01   9.1572E+00  0.000E+00  0.000E+00  0.000E+00  1.03885E+03  6.732E-01  1.200E+01  6.000E-02  1.224E+00
   1   11    7     6     3    9.1572E+00  2.1981E-01   8.9374E+00  0.000E+00  0.000E+00  0.000E+00  1.03430E+03  6.636E-01  1.200E+01  6.000E-02  1.221E+00
   1   12    7     6     4    8.9374E+00  2.1923E-01   8.7181E+00  0.000E+00  0.000E+00  0.000E+00  1.02974E+03  6.539E-01  1.200E+01  6.000E-02  1.218E+00
   1   13    7     6     5    8.7181E+00 -1.0401E-01   8.8221E+00  0.000E+00  0.000E+00  0.000E+00  1.02656E+03  6.513E-01  1.200E+01  2.400E-01 -1.445E-01
   1   14    9     7     1    1.5000E+02  1.3406E+00   1.4866E+02  0.000E+00  0.000E+00  0.000E+00  1.03987E+03  2.288E+00  5.529E+01  5.593E-01  7.990E-01
   1   13    8     7     2    1.4866E+02  1.8499E+00   1.4681E+02  0.000E+00  0.000E+00  0.000E+00  1.03478E+03  2.279E+00  5.526E+01  6.148E-01  1.003E+00
   1   13    7     7     3    1.4681E+02  1.5055E+00   1.4530E+02  0.000E+00  0.000E+00  0.000E+00  1.02969E+03  2.270E+00  5.522E+01  5.584E-01  8.986E-01
   1   13    6     8     1    1.5413E+02  8.6328E-01   1.5326E+02  0.000E+00  0.000E+00  0.000E+00  1.02472E+03  2.843E+00  4.122E+01  4.200E-01  6.851E-01
   1   13    5     8     2    1.5326E+02  1.3868E-01   1.5312E+02  0.000E+00  0.000E+00  0.000E+00  1.01846E+03  2.839E+00  4.117E+01  4.195E-01  1.102E-01
   1   13    4     8     3    1.5312E+02 -2.5395E+00   1.5566E+02  0.000E+00  0.000E+00  0.000E+00  1.01222E+03  2.848E+00  4.129E+01  4.207E+00 -2.012E-01
   1   13    3     8     4    1.5566E+02 -3.7262E+00   1.5939E+02  0.000E+00  0.000E+00  0.000E+00  1.00599E+03  2.869E+00  4.160E+01  4.239E+00 -2.930E-01
   1   13    2     8     5    1.5939E+02 -2.6740E+00   1.6206E+02  0.000E+00  0.000E+00  0.000E+00  9.99766E+02  2.891E+00  4.192E+01  4.271E+00 -2.087E-01
   1   13    1     8     6    1.6206E+02 -2.0916E+00   1.6416E+02  0.000E+00  0.000E+00  0.000E+00  9.94782E+02  2.907E+00  4.215E+01  2.577E+00 -2.705E-01
   1    8    6     9     1    5.0877E+01  0.0000E+00   5.0877E+01  0.000E+00  0.000E+00  0.000E+00  1.08476E+03  6.014E+00  4.000E+00  0.000E+00  3.005E+00
   1    8    5     9     2    5.0877E+01  0.0000E+00   5.0877E+01  0.000E+00  0.000E+00  0.000E+00  1.08426E+03  6.014E+00  4.000E+00  0.000E+00  3.005E+00





UNSATURATED ZONE PACKAGE VOLUMETRIC BUDGET FOR  TIME STEP    30 STRESS PERIOD   32
  ------------------------------------------------------------------------------



     CUMULATIVE VOLUMES      L**3       RATES FOR THIS TIME STEP      L**3/T
     ------------------                 ------------------------

           IN:                                      IN:
           ---                                      ---
        INFILTRATION =  1254959290.1523          INFILTRATION =          60.7610

          OUT:                                     OUT:
          ----                                     ----
              UZF ET =  1114932100.0910                UZF ET =          60.8175
        UZF RECHARGE =       73224.0000          UZF RECHARGE =       0.0000E+00

            IN - OUT =   139953966.0612              IN - OUT =      -5.6505E-02

          STORAGE:                                 STORAGE:
          --------                                 --------
      STORAGE CHANGE =   139955327.1970        STORAGE CHANGE =      -5.6505E-02

 PERCENT DISCREPANCY IS DIFFERENCE BETWEEN IN-OUT MINUS CHANGE IN STORAGE
 DIVIDED BY THE AVERAGE OF IN AND OUT TIMES 100

 PERCENT DISCREPANCY =          -0.00     PERCENT DISCREPANCY =           0.00






1
  VOLUMETRIC BUDGET FOR AGRICULTURAL FIELDS AT  END OF TIME STEP   30, STRESS PERIOD  32
  ------------------------------------------------------------------------------

     CUMULATIVE VOLUMES      L**3       RATES FOR THIS TIME STEP      L**3/T
     ------------------                 ------------------------

           IN:                                      IN:
           ---                                      ---
               AG WELLS  =   360762560.0000                 AG WELLS  =           9.0357
      DIVERSION SEGMENTS =   825085888.0000        DIVERSION SEGMENTS =          50.8768
       IRRIGATION PONDS  =           0.0000         IRRIGATION PONDS  =           0.0000
           GW IRRIGATION =           0.0000             GW IRRIGATION =           0.0000
           SW IRRIGATION =           0.0000             SW IRRIGATION =           0.0000
        SYSTEM LOSSES GW =           0.0000          SYSTEM LOSSES GW =           0.0000
        SYSTEM LOSSES SW =           0.0000          SYSTEM LOSSES SW =           0.0000

                TOTAL IN =  1185848448.0000                  TOTAL IN =          59.9125

          OUT:                                     OUT:
          ----                                     ----
               AG WELLS  =           0.0000                 AG WELLS  =           0.0000
      DIVERSION SEGMENTS =           0.0000        DIVERSION SEGMENTS =           0.0000
       IRRIGATION PONDS  =           0.0000         IRRIGATION PONDS  =           0.0000
           GW IRRIGATION =   360762560.0000             GW IRRIGATION =           9.0357
           SW IRRIGATION =   825103296.0000             SW IRRIGATION =          50.8778
        SYSTEM LOSSES GW =           0.0000          SYSTEM LOSSES GW =           0.0000
        SYSTEM LOSSES SW =           0.0000          SYSTEM LOSSES SW =           0.0000

               TOTAL OUT =  1185865856.0000                 TOTAL OUT =          59.9135

                IN - OUT =      -17408.0000                  IN - OUT =      -1.0147E-03

     PERCENT DISCREPANCY =          -0.00         PERCENT DISCREPANCY =          -0.00



1
  VOLUMETRIC BUDGET FOR ENTIRE MODEL AT END OF TIME STEP   30, STRESS PERIOD  32
  ------------------------------------------------------------------------------

     CUMULATIVE VOLUMES      L**3       RATES FOR THIS TIME STEP      L**3/T
     ------------------                 ------------------------

           IN:                                      IN:
           ---                                      ---
             STORAGE     =   622352128.0000               STORAGE     =           8.3529
       CONSTANT HEAD     =           0.0000         CONSTANT HEAD     =           0.0000
     HEAD DEP BOUNDS     =    23326598.0000       HEAD DEP BOUNDS     =           0.2861
      STREAM LEAKAGE     =   977169024.0000        STREAM LEAKAGE     =          12.3513
        UZF RECHARGE     =       73223.9531          UZF RECHARGE     =           0.0000
               GW ET     =           0.0000                 GW ET     =           0.0000
     SURFACE LEAKAGE     =           0.0000       SURFACE LEAKAGE     =           0.0000
           AG WELLS      =           0.0000             AG WELLS      =           0.0000

                TOTAL IN =  1622920960.0000                  TOTAL IN =          20.9903

          OUT:                                     OUT:
          ----                                     ----
             STORAGE     =   354657888.0000               STORAGE     =           0.5304
       CONSTANT HEAD     =           0.0000         CONSTANT HEAD     =           0.0000
     HEAD DEP BOUNDS     =    23741498.0000       HEAD DEP BOUNDS     =           0.2885
      STREAM LEAKAGE     =   880781760.0000        STREAM LEAKAGE     =          11.1353
        UZF RECHARGE     =           0.0000          UZF RECHARGE     =           0.0000
               GW ET     =     2982784.2500                 GW ET     =           0.0000
     SURFACE LEAKAGE     =           0.0000       SURFACE LEAKAGE     =           0.0000
           AG WELLS      =   360762560.0000             AG WELLS      =           9.0357

               TOTAL OUT =  1622926592.0000                 TOTAL OUT =          20.9899

                IN - OUT =       -5632.0000                  IN - OUT =       4.1962E-04

     PERCENT DISCREPANCY =          -0.00         PERCENT DISCREPANCY =           0.00






         TIME SUMMARY AT END OF TIME STEP   30 IN STRESS PERIOD   32
                    SECONDS     MINUTES      HOURS       DAYS        YEARS
                    -----------------------------------------------------------
   TIME STEP LENGTH  87667.      1461.1      24.352      1.0147     2.77799E-03
 STRESS PERIOD TIME 2.63000E+06  43833.      730.56      30.440     8.33397E-02
         TOTAL TIME 8.16164E+07 1.36027E+06  22671.      944.63      2.5863    
1
1
                            STRESS PERIOD NO.   33, LENGTH =   2630000.    
                            -----------------------------------------------

                              NUMBER OF TIME STEPS =    30

                               MULTIPLIER FOR DELT =     1.000

                            INITIAL TIME STEP SIZE =   87666.66    

 REUSING NON-PARAMETER GHB CELLS FROM LAST STRESS PERIOD

      2 GHB CELLS

 REUSING STREAM SEGMENT DATA FROM LAST STRESS PERIOD



            AREAL INFILTRATION RATE
 READING ON UNIT   19 WITH FORMAT: (FREE)              

            1           2           3           4           5           6           7           8           9          10
 ........................................................................................................................
   1   1.0000E-10  2.0000E-10   0.000       0.000       0.000       0.000       0.000       0.000       0.000       0.000    
   2   2.0000E-10  1.0000E-10  2.0000E-10   0.000       0.000      8.0000E-10  8.0000E-10  5.0000E-10   0.000       0.000    
   3    0.000      5.0000E-10  1.0000E-10  1.0000E-10  8.0000E-10  8.0000E-10  5.0000E-10  5.0000E-10   0.000       0.000    
   4   8.0000E-10  5.0000E-10  1.0000E-10  1.0000E-10  1.0000E-10  1.0000E-10  1.0000E-10  1.0000E-10  2.0000E-10   0.000    
   5   8.0000E-10  5.0000E-10  1.0000E-10  1.0000E-10  1.0000E-10  1.0000E-10  1.0000E-10  1.0000E-10  1.0000E-10  1.0000E-10
   6   8.0000E-10  5.0000E-10  5.0000E-10  2.0000E-10  2.0000E-10  1.0000E-10  1.0000E-10  1.0000E-10  1.0000E-10  5.0000E-10
   7   8.0000E-10  5.0000E-10  5.0000E-10  2.0000E-10  2.0000E-10  1.0000E-10  1.0000E-10  2.0000E-10  2.0000E-10   0.000    
   8    0.000      5.0000E-10  5.0000E-10  2.0000E-10  2.0000E-10  1.0000E-10  1.0000E-10  2.0000E-10  5.0000E-10   0.000    
   9    0.000      5.0000E-10  5.0000E-10  2.0000E-10  2.0000E-10  1.0000E-10  1.0000E-10  2.0000E-10  5.0000E-10   0.000    
  10    0.000      5.0000E-10  5.0000E-10  2.0000E-10  2.0000E-10  1.0000E-10  1.0000E-10  2.0000E-10  5.0000E-10  8.0000E-10
  11    0.000      1.0000E-10  1.0000E-10  1.0000E-10  1.0000E-10  1.0000E-10  1.0000E-10  2.0000E-10  5.0000E-10   0.000    
  12   1.0000E-10  1.0000E-10  1.0000E-10  1.0000E-10  1.0000E-10  1.0000E-10  1.0000E-10  1.0000E-10  2.0000E-10   0.000    
  13   1.0000E-10  1.0000E-10  2.0000E-10  2.0000E-10  2.0000E-10  2.0000E-10  2.0000E-10  1.0000E-10  1.0000E-10   0.000    
  14    0.000      2.0000E-10  5.0000E-10  5.0000E-10  5.0000E-10  5.0000E-10  5.0000E-10  2.0000E-10  1.0000E-10   0.000    
  15    0.000       0.000      8.0000E-10  8.0000E-10  8.0000E-10  8.0000E-10   0.000       0.000       0.000       0.000    

                  ET RATE =  3.250000E-07

 USING ET EXTINCTION DEPTH FROM PREVIOUS STRESS PERIOD. CURRENT PERIOD IS:      33

 USING EXTINCTION WATER CONTENT FROM PREVIOUS STRESS PERIOD. CURRENT PERIOD IS:      33

 USING AIR ENTRY PRESSURE FROM PREVIOUS STRESS PERIOD. CURRENT PERIOD IS:      33

 USING ROOT PRESSURE HEAD FROM PREVIOUS STRESS PERIOD. CURRENT PERIOD IS:      33

 USING ROOT ACTIVITY FROM PREVIOUS STRESS PERIOD. CURRENT PERIOD IS:      33

 PROCESSING AG STRESS PERIOD DATA

 READING AG STRESS PERIOD DATA

 READING IRRIGATION SEGMENT

 READING IRRIGATION WELL

 READING SUPPLEMENTAL WELL

 NO IRRPOND OR REUSING IRRPOND DATA FROM LAST STRESS PERIOD

 END PROCESSING AG STRESS PERIOD DATA OPTIONS
 
 SOLVING FOR HEAD 
                                                   Max.-Head-Change                         Max.-Flux-Residual
  Residual-Control   Outer-Iter.   Inner-Iter.     Column Row Layer    Maximum-Head-Change  Column Row Layer    Maximum-Flux-Residual          L2-NORM 
          0                 1           2             5    8     1       0.1693754215E-01       5    8    1         0.9162329534E+00      0.2110957069E+01
          0                 2           2             5    8     1      -0.1647571869E-02       5    8    1        -0.9162405328E-01      0.2110788438E+00
          0                 3           2             5    8     1       0.1121934299E-03       5    8    1         0.6413679318E-02      0.1477391821E-01
          0                 4           1             5    8     1      -0.4464282236E-05       5    8    1        -0.2623198911E-03      0.6041321727E-03

    ------------------------------------------------
       NWT REQUIRED            4 OUTER ITERATIONS 
       AND A TOTAL OF          7 INNER ITERATIONS.
    ------------------------------------------------

 NO OUTPUT CONTROL FOR STRESS PERIOD   33   TIME STEP    1
 
 SOLVING FOR HEAD 
                                                   Max.-Head-Change                         Max.-Flux-Residual
  Residual-Control   Outer-Iter.   Inner-Iter.     Column Row Layer    Maximum-Head-Change  Column Row Layer    Maximum-Flux-Residual          L2-NORM 
          0                 1           2             5    6     1       0.1630206549E-01       5    8    1         0.8801945497E+00      0.2504666861E+01
          0                 2           2             7   13     1      -0.3256879806E-02       7   13    1        -0.1806940487E+00      0.3031823309E+00
          0                 3           2             4    7     1      -0.1510189730E+00       4    7    1        -0.8105905323E+01      0.1991754500E+02
          0                 4           2             4    7     1       0.1330222802E+00       4    7    1         0.7339511315E+01      0.1797856909E+02
          0                 5           2             4    7     1      -0.5294493161E-02       5    8    1        -0.3003835197E+00      0.7357352497E+00
          0                 6           1             4    7     1       0.6533168536E-04       5    8    1         0.3810622715E-02      0.9337320420E-02

    ------------------------------------------------
       NWT REQUIRED            6 OUTER ITERATIONS 
       AND A TOTAL OF         11 INNER ITERATIONS.
    ------------------------------------------------

 NO OUTPUT CONTROL FOR STRESS PERIOD   33   TIME STEP    2
 
 SOLVING FOR HEAD 
                                                   Max.-Head-Change                         Max.-Flux-Residual
  Residual-Control   Outer-Iter.   Inner-Iter.     Column Row Layer    Maximum-Head-Change  Column Row Layer    Maximum-Flux-Residual          L2-NORM 
          0                 1           2             5    6     1       0.1639364373E-01       5    6    1         0.8850159423E+00      0.2522576610E+01
          0                 2           2             7   13     1      -0.3264238500E-02       7   13    1        -0.1811004042E+00      0.3048382096E+00
          0                 3           2             4    7     1      -0.1510195595E+00       4    7    1        -0.8105933387E+01      0.1991770191E+02
          0                 4           2             4    7     1       0.1330223610E+00       4    7    1         0.7339513284E+01      0.1797857531E+02
          0                 5           2             4    7     1      -0.5294496378E-02       5    8    1        -0.3003836687E+00      0.7357353819E+00
          0                 6           1             4    7     1       0.6533172491E-04       5    8    1         0.3810624595E-02      0.9337296856E-02

    ------------------------------------------------
       NWT REQUIRED            6 OUTER ITERATIONS 
       AND A TOTAL OF         11 INNER ITERATIONS.
    ------------------------------------------------

 NO OUTPUT CONTROL FOR STRESS PERIOD   33   TIME STEP    3
 
 SOLVING FOR HEAD 
                                                   Max.-Head-Change                         Max.-Flux-Residual
  Residual-Control   Outer-Iter.   Inner-Iter.     Column Row Layer    Maximum-Head-Change  Column Row Layer    Maximum-Flux-Residual          L2-NORM 
          0                 1           2             5    6     1       0.1648309923E-01       5    6    1         0.8897832052E+00      0.2539845303E+01
          0                 2           2             7   13     1      -0.3271422837E-02       7   13    1        -0.1814971252E+00      0.3064407304E+00
          0                 3           2             4    7     1      -0.1510201277E+00       4    7    1        -0.8105960499E+01      0.1991785302E+02
          0                 4           2             4    7     1       0.1330224402E+00       4    7    1         0.7339515185E+01      0.1797858134E+02
          0                 5           2             4    7     1      -0.5294499529E-02       5    8    1        -0.3003838144E+00      0.7357355168E+00
          0                 6           1             4    7     1       0.6533176389E-04       5    8    1         0.3810626411E-02      0.9337280106E-02

    ------------------------------------------------
       NWT REQUIRED            6 OUTER ITERATIONS 
       AND A TOTAL OF         11 INNER ITERATIONS.
    ------------------------------------------------

 NO OUTPUT CONTROL FOR STRESS PERIOD   33   TIME STEP    4
 
 SOLVING FOR HEAD 
                                                   Max.-Head-Change                         Max.-Flux-Residual
  Residual-Control   Outer-Iter.   Inner-Iter.     Column Row Layer    Maximum-Head-Change  Column Row Layer    Maximum-Flux-Residual          L2-NORM 
          0                 1           2             5    6     1       0.1657022224E-01       5    6    1         0.8944238128E+00      0.2556510416E+01
          0                 2           2             7   13     1      -0.3278472816E-02       7   13    1        -0.1818864283E+00      0.3079941858E+00
          0                 3           2             4    7     1      -0.1510206780E+00       4    7    1        -0.8105986696E+01      0.1991799887E+02
          0                 4           2             4    7     1       0.1330225177E+00       4    7    1         0.7339517023E+01      0.1797858722E+02
          0                 5           2             4    7     1      -0.5294502614E-02       5    8    1        -0.3003839568E+00      0.7357356519E+00
          0                 6           1             4    7     1       0.6533180208E-04       5    8    1         0.3810628200E-02      0.9337270841E-02

    ------------------------------------------------
       NWT REQUIRED            6 OUTER ITERATIONS 
       AND A TOTAL OF         11 INNER ITERATIONS.
    ------------------------------------------------

 NO OUTPUT CONTROL FOR STRESS PERIOD   33   TIME STEP    5
 
 SOLVING FOR HEAD 
                                                   Max.-Head-Change                         Max.-Flux-Residual
  Residual-Control   Outer-Iter.   Inner-Iter.     Column Row Layer    Maximum-Head-Change  Column Row Layer    Maximum-Flux-Residual          L2-NORM 
          0                 1           2             5    6     1       0.1665540623E-01       5    6    1         0.8989599525E+00      0.2572608732E+01
          0                 2           2             7   13     1      -0.3285370827E-02       7   13    1        -0.1822672973E+00      0.3094997256E+00
          0                 3           2             4    7     1      -0.1510212281E+00       4    7    1        -0.8106012915E+01      0.1991814183E+02
          0                 4           2             4    7     1       0.1330225883E+00       4    7    1         0.7339518504E+01      0.1797859221E+02
          0                 5           2             4    7     1      -0.5294503321E-02       5    8    1        -0.3003839645E+00      0.7357354539E+00
          0                 6           1             4    7     1       0.6533181060E-04       5    8    1         0.3810628258E-02      0.9337245063E-02

    ------------------------------------------------
       NWT REQUIRED            6 OUTER ITERATIONS 
       AND A TOTAL OF         11 INNER ITERATIONS.
    ------------------------------------------------

 NO OUTPUT CONTROL FOR STRESS PERIOD   33   TIME STEP    6
 
 SOLVING FOR HEAD 
                                                   Max.-Head-Change                         Max.-Flux-Residual
  Residual-Control   Outer-Iter.   Inner-Iter.     Column Row Layer    Maximum-Head-Change  Column Row Layer    Maximum-Flux-Residual          L2-NORM 
          0                 1           2             5    6     1       0.1673873553E-01       5    6    1         0.9033955294E+00      0.2588172794E+01
          0                 2           2             7   13     1      -0.3292142463E-02       7   13    1        -0.1826412042E+00      0.3109611834E+00
          0                 3           2             4    7     1      -0.1510217777E+00       4    7    1        -0.8106039143E+01      0.1991828185E+02
          0                 4           2             4    7     1       0.1330226757E+00       4    7    1         0.7339520939E+01      0.1797859952E+02
          0                 5           2             4    7     1      -0.5294506798E-02       5    8    1        -0.3003841297E+00      0.7357356442E+00
          0                 6           1             4    7     1       0.6533185328E-04       5    8    1         0.3810630333E-02      0.9337217130E-02

    ------------------------------------------------
       NWT REQUIRED            6 OUTER ITERATIONS 
       AND A TOTAL OF         11 INNER ITERATIONS.
    ------------------------------------------------

 NO OUTPUT CONTROL FOR STRESS PERIOD   33   TIME STEP    7
 
 SOLVING FOR HEAD 
                                                   Max.-Head-Change                         Max.-Flux-Residual
  Residual-Control   Outer-Iter.   Inner-Iter.     Column Row Layer    Maximum-Head-Change  Column Row Layer    Maximum-Flux-Residual          L2-NORM 
          0                 1           2             5    6     1       0.1681998859E-01       5    6    1         0.9077183544E+00      0.2603229787E+01
          0                 2           2             7   13     1      -0.3298757611E-02       7   13    1        -0.1830064575E+00      0.3123797299E+00
          0                 3           2             4    7     1      -0.1510223085E+00       4    7    1        -0.8106064408E+01      0.1991841690E+02
          0                 4           2             4    7     1       0.1330227398E+00       4    7    1         0.7339522115E+01      0.1797860373E+02
          0                 5           2             4    7     1      -0.5294509348E-02       5    8    1        -0.3003842423E+00      0.7357357172E+00
          0                 6           1             4    7     1       0.6533188498E-04       5    8    1         0.3810631731E-02      0.9337210523E-02

    ------------------------------------------------
       NWT REQUIRED            6 OUTER ITERATIONS 
       AND A TOTAL OF         11 INNER ITERATIONS.
    ------------------------------------------------

 NO OUTPUT CONTROL FOR STRESS PERIOD   33   TIME STEP    8
 
 SOLVING FOR HEAD 
                                                   Max.-Head-Change                         Max.-Flux-Residual
  Residual-Control   Outer-Iter.   Inner-Iter.     Column Row Layer    Maximum-Head-Change  Column Row Layer    Maximum-Flux-Residual          L2-NORM 
          0                 1           2             5    6     1       0.1689954516E-01       5    6    1         0.9119500331E+00      0.2617808849E+01
          0                 2           2             7   13     1      -0.3305251426E-02       7   13    1        -0.1833650056E+00      0.3137576707E+00
          0                 3           2             4    7     1      -0.1510228373E+00       4    7    1        -0.8106089595E+01      0.1991854925E+02
          0                 4           2             4    7     1       0.1330228206E+00       4    7    1         0.7339524239E+01      0.1797861025E+02
          0                 5           2             4    7     1      -0.5294514667E-02       5    8    1        -0.3003845124E+00      0.7357361755E+00
          0                 6           1             4    7     1       0.6533195039E-04       5    8    1         0.3810635122E-02      0.9337197798E-02

    ------------------------------------------------
       NWT REQUIRED            6 OUTER ITERATIONS 
       AND A TOTAL OF         11 INNER ITERATIONS.
    ------------------------------------------------

 NO OUTPUT CONTROL FOR STRESS PERIOD   33   TIME STEP    9
 
 SOLVING FOR HEAD 
                                                   Max.-Head-Change                         Max.-Flux-Residual
  Residual-Control   Outer-Iter.   Inner-Iter.     Column Row Layer    Maximum-Head-Change  Column Row Layer    Maximum-Flux-Residual          L2-NORM 
          0                 1           2             5    6     1       0.1697717702E-01       5    6    1         0.9160771626E+00      0.2631924108E+01
          0                 2           2             7   13     1      -0.3311597017E-02       7   13    1        -0.1837153599E+00      0.3150966181E+00
          0                 3           2             4    7     1      -0.1510233478E+00       4    7    1        -0.8106113841E+01      0.1991867696E+02
          0                 4           2             4    7     1       0.1330228867E+00       4    7    1         0.7339525582E+01      0.1797861485E+02
          0                 5           2             4    7     1      -0.5294515199E-02       5    8    1        -0.3003845111E+00      0.7357359691E+00
          0                 6           1             4    7     1       0.6533195700E-04       5    8    1         0.3810635098E-02      0.9337177225E-02

    ------------------------------------------------
       NWT REQUIRED            6 OUTER ITERATIONS 
       AND A TOTAL OF         11 INNER ITERATIONS.
    ------------------------------------------------

 NO OUTPUT CONTROL FOR STRESS PERIOD   33   TIME STEP   10
 
 SOLVING FOR HEAD 
                                                   Max.-Head-Change                         Max.-Flux-Residual
  Residual-Control   Outer-Iter.   Inner-Iter.     Column Row Layer    Maximum-Head-Change  Column Row Layer    Maximum-Flux-Residual          L2-NORM 
          0                 1           2             5    6     1       0.1705325697E-01       5    6    1         0.9201209802E+00      0.2645620861E+01
          0                 2           2             7   13     1      -0.3317830662E-02       7   13    1        -0.1840595227E+00      0.3163989320E+00
          0                 3           2             4    7     1      -0.1510238556E+00       4    7    1        -0.8106137976E+01      0.1991880223E+02
          0                 4           2             4    7     1       0.1330229588E+00       4    7    1         0.7339527274E+01      0.1797862030E+02
          0                 5           2             4    7     1      -0.5294518067E-02       5    8    1        -0.3003846425E+00      0.7357360948E+00
          0                 6           1             4    7     1       0.6533199240E-04       5    8    1         0.3810636730E-02      0.9337160639E-02

    ------------------------------------------------
       NWT REQUIRED            6 OUTER ITERATIONS 
       AND A TOTAL OF         11 INNER ITERATIONS.
    ------------------------------------------------

 NO OUTPUT CONTROL FOR STRESS PERIOD   33   TIME STEP   11
 
 SOLVING FOR HEAD 
                                                   Max.-Head-Change                         Max.-Flux-Residual
  Residual-Control   Outer-Iter.   Inner-Iter.     Column Row Layer    Maximum-Head-Change  Column Row Layer    Maximum-Flux-Residual          L2-NORM 
          0                 1           2             5    6     1       0.1712784609E-01       5    6    1         0.9240842932E+00      0.2658907221E+01
          0                 2           2             7   13     1      -0.3323940890E-02       7   13    1        -0.1843968713E+00      0.3176663896E+00
          0                 3           2             4    7     1      -0.1510243791E+00       4    7    1        -0.8106162993E+01      0.1991892748E+02
          0                 4           2             4    7     1       0.1330230424E+00       4    7    1         0.7339529624E+01      0.1797862734E+02
          0                 5           2             4    7     1      -0.5294521392E-02       5    8    1        -0.3003847999E+00      0.7357362947E+00
          0                 6           1             4    7     1       0.6533203362E-04       5    8    1         0.3810638713E-02      0.9337151625E-02

    ------------------------------------------------
       NWT REQUIRED            6 OUTER ITERATIONS 
       AND A TOTAL OF         11 INNER ITERATIONS.
    ------------------------------------------------

 NO OUTPUT CONTROL FOR STRESS PERIOD   33   TIME STEP   12
 
 SOLVING FOR HEAD 
                                                   Max.-Head-Change                         Max.-Flux-Residual
  Residual-Control   Outer-Iter.   Inner-Iter.     Column Row Layer    Maximum-Head-Change  Column Row Layer    Maximum-Flux-Residual          L2-NORM 
          0                 1           2             5    6     1       0.1720068943E-01       5    6    1         0.9279537581E+00      0.2671804175E+01
          0                 2           2             7   13     1      -0.3329926989E-02       7   13    1        -0.1847273696E+00      0.3189000032E+00
          0                 3           2             4    7     1      -0.1510248834E+00       4    7    1        -0.8106187020E+01      0.1991904790E+02
          0                 4           2             4    7     1       0.1330231134E+00       4    7    1         0.7339531309E+01      0.1797863271E+02
          0                 5           2             4    7     1      -0.5294524219E-02       5    8    1        -0.3003849291E+00      0.7357364195E+00
          0                 6           1             4    7     1       0.6533206868E-04       5    8    1         0.3810640316E-02      0.9337134579E-02

    ------------------------------------------------
       NWT REQUIRED            6 OUTER ITERATIONS 
       AND A TOTAL OF         11 INNER ITERATIONS.
    ------------------------------------------------

 NO OUTPUT CONTROL FOR STRESS PERIOD   33   TIME STEP   13
 
 SOLVING FOR HEAD 
                                                   Max.-Head-Change                         Max.-Flux-Residual
  Residual-Control   Outer-Iter.   Inner-Iter.     Column Row Layer    Maximum-Head-Change  Column Row Layer    Maximum-Flux-Residual          L2-NORM 
          0                 1           2             5    6     1       0.1727217050E-01       5    6    1         0.9317491918E+00      0.2684346333E+01
          0                 2           2             7   13     1      -0.3335816858E-02       7   13    1        -0.1850525382E+00      0.3201034275E+00
          0                 3           2             4    7     1      -0.1510253664E+00       4    7    1        -0.8106209935E+01      0.1991916412E+02
          0                 4           2             4    7     1       0.1330231826E+00       4    7    1         0.7339532916E+01      0.1797863789E+02
          0                 5           2             4    7     1      -0.5294526971E-02       5    8    1        -0.3003850544E+00      0.7357365314E+00
          0                 6           1             4    7     1       0.6533210240E-04       5    8    1         0.3810641881E-02      0.9337114078E-02

    ------------------------------------------------
       NWT REQUIRED            6 OUTER ITERATIONS 
       AND A TOTAL OF         11 INNER ITERATIONS.
    ------------------------------------------------

 NO OUTPUT CONTROL FOR STRESS PERIOD   33   TIME STEP   14
 
 SOLVING FOR HEAD 
                                                   Max.-Head-Change                         Max.-Flux-Residual
  Residual-Control   Outer-Iter.   Inner-Iter.     Column Row Layer    Maximum-Head-Change  Column Row Layer    Maximum-Flux-Residual          L2-NORM 
          0                 1           2             5    6     1       0.1734202558E-01       5    6    1         0.9354574034E+00      0.2696520145E+01
          0                 2           2             7   13     1      -0.3341570875E-02       7   13    1        -0.1853701998E+00      0.3212732533E+00
          0                 3           2             4    7     1      -0.1510258651E+00       4    7    1        -0.8106233733E+01      0.1991928053E+02
          0                 4           2             4    7     1       0.1330232524E+00       4    7    1         0.7339534584E+01      0.1797864320E+02
          0                 5           2             4    7     1      -0.5294529751E-02       5    8    1        -0.3003851812E+00      0.7357366578E+00
          0                 6           1             4    7     1       0.6533213679E-04       5    8    1         0.3810643463E-02      0.9337107041E-02

    ------------------------------------------------
       NWT REQUIRED            6 OUTER ITERATIONS 
       AND A TOTAL OF         11 INNER ITERATIONS.
    ------------------------------------------------

 NO OUTPUT CONTROL FOR STRESS PERIOD   33   TIME STEP   15
 
 SOLVING FOR HEAD 
                                                   Max.-Head-Change                         Max.-Flux-Residual
  Residual-Control   Outer-Iter.   Inner-Iter.     Column Row Layer    Maximum-Head-Change  Column Row Layer    Maximum-Flux-Residual          L2-NORM 
          0                 1           2             5    6     1       0.1741031296E-01       5    6    1         0.9390813069E+00      0.2708361349E+01
          0                 2           2             7   13     1      -0.3347233340E-02       7   13    1        -0.1856828080E+00      0.3224158227E+00
          0                 3           2             4    7     1      -0.1510263428E+00       4    7    1        -0.8106256439E+01      0.1991939250E+02
          0                 4           2             4    7     1       0.1330233204E+00       4    7    1         0.7339536176E+01      0.1797864831E+02
          0                 5           2             4    7     1      -0.5294532458E-02       5    8    1        -0.3003853039E+00      0.7357367790E+00
          0                 6           1             4    7     1       0.6533217017E-04       5    8    1         0.3810645007E-02      0.9337086109E-02

    ------------------------------------------------
       NWT REQUIRED            6 OUTER ITERATIONS 
       AND A TOTAL OF         11 INNER ITERATIONS.
    ------------------------------------------------

 NO OUTPUT CONTROL FOR STRESS PERIOD   33   TIME STEP   16
 
 SOLVING FOR HEAD 
                                                   Max.-Head-Change                         Max.-Flux-Residual
  Residual-Control   Outer-Iter.   Inner-Iter.     Column Row Layer    Maximum-Head-Change  Column Row Layer    Maximum-Flux-Residual          L2-NORM 
          0                 1           2             5    6     1       0.1747740202E-01       5    6    1         0.9426403936E+00      0.2719890044E+01
          0                 2           2             7   13     1      -0.3352786926E-02       7   13    1        -0.1859894010E+00      0.3235293822E+00
          0                 3           2             4    7     1      -0.1510268170E+00       4    7    1        -0.8106278992E+01      0.1991950237E+02
          0                 4           2             4    7     1       0.1330233835E+00       5    6    1         0.7339538714E+01      0.1797865279E+02
          0                 5           2             4    7     1      -0.5294537070E-02       5    8    1        -0.3003855347E+00      0.7357371676E+00
          0                 6           1             4    7     1       0.6533222707E-04       5    8    1         0.3810647905E-02      0.9337075010E-02

    ------------------------------------------------
       NWT REQUIRED            6 OUTER ITERATIONS 
       AND A TOTAL OF         11 INNER ITERATIONS.
    ------------------------------------------------

 NO OUTPUT CONTROL FOR STRESS PERIOD   33   TIME STEP   17
 
 SOLVING FOR HEAD 
                                                   Max.-Head-Change                         Max.-Flux-Residual
  Residual-Control   Outer-Iter.   Inner-Iter.     Column Row Layer    Maximum-Head-Change  Column Row Layer    Maximum-Flux-Residual          L2-NORM 
          0                 1           2             5    6     1       0.1754332353E-01       5    6    1         0.9461373274E+00      0.2731125228E+01
          0                 2           2             7   13     1      -0.3358234520E-02       7   13    1        -0.1862901361E+00      0.3246182014E+00
          0                 3           2             4    7     1      -0.1510272874E+00       4    7    1        -0.8106301374E+01      0.1991961022E+02
          0                 4           2             4    7     1       0.1330234503E+00       5    6    1         0.7339541675E+01      0.1797865781E+02
          0                 5           2             4    7     1      -0.5294539727E-02       5    8    1        -0.3003856547E+00      0.7357372846E+00
          0                 6           1             4    7     1       0.6533225967E-04       5    8    1         0.3810649400E-02      0.9337057081E-02

    ------------------------------------------------
       NWT REQUIRED            6 OUTER ITERATIONS 
       AND A TOTAL OF         11 INNER ITERATIONS.
    ------------------------------------------------

 NO OUTPUT CONTROL FOR STRESS PERIOD   33   TIME STEP   18
 
 SOLVING FOR HEAD 
                                                   Max.-Head-Change                         Max.-Flux-Residual
  Residual-Control   Outer-Iter.   Inner-Iter.     Column Row Layer    Maximum-Head-Change  Column Row Layer    Maximum-Flux-Residual          L2-NORM 
          0                 1           2             5    6     1       0.1760781909E-01       5    6    1         0.9495571548E+00      0.2742062429E+01
          0                 2           2             7   13     1      -0.3363579414E-02       7   13    1        -0.1865852058E+00      0.3256783892E+00
          0                 3           2             4    7     1      -0.1510277536E+00       4    7    1        -0.8106323571E+01      0.1991971623E+02
          0                 4           2             4    7     1       0.1330235207E+00       5    6    1         0.7339544846E+01      0.1797866334E+02
          0                 5           2             4    7     1      -0.5294540428E-02       5    8    1        -0.3003856638E+00      0.7357371378E+00
          0                 6           1             4    7     1       0.6533226852E-04       5    8    1         0.3810649489E-02      0.9337047944E-02

    ------------------------------------------------
       NWT REQUIRED            6 OUTER ITERATIONS 
       AND A TOTAL OF         11 INNER ITERATIONS.
    ------------------------------------------------

 NO OUTPUT CONTROL FOR STRESS PERIOD   33   TIME STEP   19
 
 SOLVING FOR HEAD 
                                                   Max.-Head-Change                         Max.-Flux-Residual
  Residual-Control   Outer-Iter.   Inner-Iter.     Column Row Layer    Maximum-Head-Change  Column Row Layer    Maximum-Flux-Residual          L2-NORM 
          0                 1           2             5    6     1       0.1767123534E-01       5    6    1         0.9529195333E+00      0.2752731556E+01
          0                 2           2             7   13     1      -0.3368825243E-02       7   13    1        -0.1868747964E+00      0.3267170463E+00
          0                 3           2             4    7     1      -0.1510282165E+00       4    7    1        -0.8106345619E+01      0.1991981962E+02
          0                 4           2             4    7     1       0.1330235862E+00       5    6    1         0.7339547739E+01      0.1797866822E+02
          0                 5           2             4    7     1      -0.5294543035E-02       5    8    1        -0.3003857808E+00      0.7357372582E+00
          0                 6           1             4    7     1       0.6533230078E-04       5    8    1         0.3810650954E-02      0.9337042397E-02

    ------------------------------------------------
       NWT REQUIRED            6 OUTER ITERATIONS 
       AND A TOTAL OF         11 INNER ITERATIONS.
    ------------------------------------------------

 NO OUTPUT CONTROL FOR STRESS PERIOD   33   TIME STEP   20
 
 SOLVING FOR HEAD 
                                                   Max.-Head-Change                         Max.-Flux-Residual
  Residual-Control   Outer-Iter.   Inner-Iter.     Column Row Layer    Maximum-Head-Change  Column Row Layer    Maximum-Flux-Residual          L2-NORM 
          0                 1           2             5    6     1       0.1773330975E-01       5    6    1         0.9562094024E+00      0.2763131931E+01
          0                 2           2             7   13     1      -0.3373976389E-02       7   13    1        -0.1871591592E+00      0.3277310967E+00
          0                 3           2             4    7     1      -0.1510286746E+00       4    7    1        -0.8106367450E+01      0.1991992201E+02
          0                 4           2             4    7     1       0.1330236467E+00       5    6    1         0.7339550363E+01      0.1797867252E+02
          0                 5           2             4    7     1      -0.5294547544E-02       5    8    1        -0.3003860060E+00      0.7357376491E+00
          0                 6           1             4    7     1       0.6533235623E-04       5    8    1         0.3810653792E-02      0.9337033650E-02

    ------------------------------------------------
       NWT REQUIRED            6 OUTER ITERATIONS 
       AND A TOTAL OF         11 INNER ITERATIONS.
    ------------------------------------------------

 NO OUTPUT CONTROL FOR STRESS PERIOD   33   TIME STEP   21
 
 SOLVING FOR HEAD 
                                                   Max.-Head-Change                         Max.-Flux-Residual
  Residual-Control   Outer-Iter.   Inner-Iter.     Column Row Layer    Maximum-Head-Change  Column Row Layer    Maximum-Flux-Residual          L2-NORM 
          0                 1           2             5    6     1       0.1779408362E-01       5    6    1         0.9594296786E+00      0.2773274127E+01
          0                 2           2             7   13     1      -0.3379031551E-02       7   13    1        -0.1874382215E+00      0.3287204609E+00
          0                 3           2             4    7     1      -0.1510291278E+00       4    7    1        -0.8106389047E+01      0.1992002246E+02
          0                 4           2             4    7     1       0.1330237108E+00       5    6    1         0.7339553192E+01      0.1797867732E+02
          0                 5           2             4    7     1      -0.5294550097E-02       5    8    1        -0.3003861200E+00      0.7357377657E+00
          0                 6           1             4    7     1       0.6533238804E-04       5    8    1         0.3810655206E-02      0.9337023189E-02

    ------------------------------------------------
       NWT REQUIRED            6 OUTER ITERATIONS 
       AND A TOTAL OF         11 INNER ITERATIONS.
    ------------------------------------------------

 NO OUTPUT CONTROL FOR STRESS PERIOD   33   TIME STEP   22
 
 SOLVING FOR HEAD 
                                                   Max.-Head-Change                         Max.-Flux-Residual
  Residual-Control   Outer-Iter.   Inner-Iter.     Column Row Layer    Maximum-Head-Change  Column Row Layer    Maximum-Flux-Residual          L2-NORM 
          0                 1           2             5    6     1       0.1785390705E-01       5    6    1         0.9625990078E+00      0.2783176258E+01
          0                 2           2             7   13     1      -0.3384012089E-02       7   13    1        -0.1877131734E+00      0.3296897678E+00
          0                 3           2             4    7     1      -0.1510295766E+00       4    7    1        -0.8106410450E+01      0.1992012077E+02
          0                 4           2             4    7     1       0.1330237786E+00       5    6    1         0.7339556217E+01      0.1797868263E+02
          0                 5           2             4    7     1      -0.5294550693E-02       5    8    1        -0.3003861231E+00      0.7357375969E+00
          0                 6           1             4    7     1       0.6533239498E-04       5    8    1         0.3810655222E-02      0.9336999039E-02

    ------------------------------------------------
       NWT REQUIRED            6 OUTER ITERATIONS 
       AND A TOTAL OF         11 INNER ITERATIONS.
    ------------------------------------------------

 NO OUTPUT CONTROL FOR STRESS PERIOD   33   TIME STEP   23
 
 SOLVING FOR HEAD 
                                                   Max.-Head-Change                         Max.-Flux-Residual
  Residual-Control   Outer-Iter.   Inner-Iter.     Column Row Layer    Maximum-Head-Change  Column Row Layer    Maximum-Flux-Residual          L2-NORM 
          0                 1           2             5    6     1       0.1791280484E-01       5    6    1         0.9657190148E+00      0.2792857628E+01
          0                 2           2             7   13     1      -0.3388885397E-02       7   13    1        -0.1879821861E+00      0.3306367397E+00
          0                 3           2             4    7     1      -0.1510300200E+00       4    7    1        -0.8106431590E+01      0.1992021741E+02
          0                 4           2             4    7     1       0.1330238414E+00       5    6    1         0.7339558962E+01      0.1797868732E+02
          0                 5           2             4    7     1      -0.5294553190E-02       5    8    1        -0.3003862339E+00      0.7357377163E+00
          0                 6           1             4    7     1       0.6533242590E-04       5    8    1         0.3810656597E-02      0.9336983577E-02

    ------------------------------------------------
       NWT REQUIRED            6 OUTER ITERATIONS 
       AND A TOTAL OF         11 INNER ITERATIONS.
    ------------------------------------------------

 NO OUTPUT CONTROL FOR STRESS PERIOD   33   TIME STEP   24
 
 SOLVING FOR HEAD 
                                                   Max.-Head-Change                         Max.-Flux-Residual
  Residual-Control   Outer-Iter.   Inner-Iter.     Column Row Layer    Maximum-Head-Change  Column Row Layer    Maximum-Flux-Residual          L2-NORM 
          0                 1           2             5    6     1       0.1797019950E-01       5    6    1         0.9687579515E+00      0.2802303427E+01
          0                 2           2             7   13     1      -0.3393699907E-02       7   13    1        -0.1882479708E+00      0.3315676396E+00
          0                 3           2             4    7     1      -0.1510304577E+00       4    7    1        -0.8106452451E+01      0.1992031169E+02
          0                 4           2             4    7     1       0.1330238991E+00       5    6    1         0.7339561441E+01      0.1797869135E+02
          0                 5           2             4    7     1      -0.5294557589E-02       5    8    1        -0.3003864527E+00      0.7357381014E+00
          0                 6           1             4    7     1       0.6533248023E-04       5    8    1         0.3810659346E-02      0.9336981563E-02

    ------------------------------------------------
       NWT REQUIRED            6 OUTER ITERATIONS 
       AND A TOTAL OF         11 INNER ITERATIONS.
    ------------------------------------------------

 NO OUTPUT CONTROL FOR STRESS PERIOD   33   TIME STEP   25
 
 SOLVING FOR HEAD 
                                                   Max.-Head-Change                         Max.-Flux-Residual
  Residual-Control   Outer-Iter.   Inner-Iter.     Column Row Layer    Maximum-Head-Change  Column Row Layer    Maximum-Flux-Residual          L2-NORM 
          0                 1           2             5    6     1       0.1802704622E-01       5    6    1         0.9717685189E+00      0.2811540753E+01
          0                 2           2             7   13     1      -0.3398412985E-02       7   13    1        -0.1885081325E+00      0.3324737361E+00
          0                 3           2             4    7     1      -0.1510308902E+00       4    7    1        -0.8106473073E+01      0.1992040507E+02
          0                 4           2             4    7     1       0.1330239604E+00       5    6    1         0.7339564105E+01      0.1797869591E+02
          0                 5           2             4    7     1      -0.5294560029E-02       5    8    1        -0.3003865603E+00      0.7357382181E+00
          0                 6           1             4    7     1       0.6533251025E-04       5    8    1         0.3810660699E-02      0.9336960490E-02

    ------------------------------------------------
       NWT REQUIRED            6 OUTER ITERATIONS 
       AND A TOTAL OF         11 INNER ITERATIONS.
    ------------------------------------------------

 NO OUTPUT CONTROL FOR STRESS PERIOD   33   TIME STEP   26
 
 SOLVING FOR HEAD 
                                                   Max.-Head-Change                         Max.-Flux-Residual
  Residual-Control   Outer-Iter.   Inner-Iter.     Column Row Layer    Maximum-Head-Change  Column Row Layer    Maximum-Flux-Residual          L2-NORM 
          0                 1           2             5    6     1       0.1808245440E-01       5    6    1         0.9747010527E+00      0.2820565052E+01
          0                 2           2             7   13     1      -0.3403051085E-02       7   13    1        -0.1887641777E+00      0.3333625409E+00
          0                 3           2             4    7     1      -0.1510313165E+00       4    7    1        -0.8106493389E+01      0.1992049615E+02
          0                 4           2             4    7     1       0.1330240145E+00       5    6    1         0.7339566383E+01      0.1797869950E+02
          0                 5           2             4    7     1      -0.5294560081E-02       5    8    1        -0.3003865324E+00      0.7357379984E+00
          0                 6           1             4    7     1       0.6533251103E-04       5    8    1         0.3810660317E-02      0.9336959164E-02

    ------------------------------------------------
       NWT REQUIRED            6 OUTER ITERATIONS 
       AND A TOTAL OF         11 INNER ITERATIONS.
    ------------------------------------------------

 NO OUTPUT CONTROL FOR STRESS PERIOD   33   TIME STEP   27
 
 SOLVING FOR HEAD 
                                                   Max.-Head-Change                         Max.-Flux-Residual
  Residual-Control   Outer-Iter.   Inner-Iter.     Column Row Layer    Maximum-Head-Change  Column Row Layer    Maximum-Flux-Residual          L2-NORM 
          0                 1           2             5    6     1       0.1813707940E-01       5    6    1         0.9775920272E+00      0.2829395490E+01
          0                 2           2             7   13     1      -0.3407608439E-02       7   13    1        -0.1890157506E+00      0.3342332246E+00
          0                 3           2             4    7     1      -0.1510317549E+00       4    7    1        -0.8106514390E+01      0.1992058786E+02
          0                 4           2             4    7     1       0.1330240820E+00       5    6    1         0.7339569397E+01      0.1797870495E+02
          0                 5           2             4    7     1      -0.5294564871E-02       5    8    1        -0.3003867733E+00      0.7357384376E+00
          0                 6           1             4    7     1       0.6533257007E-04       5    8    1         0.3810663344E-02      0.9336943116E-02

    ------------------------------------------------
       NWT REQUIRED            6 OUTER ITERATIONS 
       AND A TOTAL OF         11 INNER ITERATIONS.
    ------------------------------------------------

 NO OUTPUT CONTROL FOR STRESS PERIOD   33   TIME STEP   28
 
 SOLVING FOR HEAD 
                                                   Max.-Head-Change                         Max.-Flux-Residual
  Residual-Control   Outer-Iter.   Inner-Iter.     Column Row Layer    Maximum-Head-Change  Column Row Layer    Maximum-Flux-Residual          L2-NORM 
          0                 1           2             5    6     1       0.1819093737E-01       5    6    1         0.9804423782E+00      0.2838040441E+01
          0                 2           2             7   13     1      -0.3412084713E-02       7   13    1        -0.1892628605E+00      0.3350864412E+00
          0                 3           2             4    7     1      -0.1510321688E+00       4    7    1        -0.8106534102E+01      0.1992067548E+02
          0                 4           2             4    7     1       0.1330241346E+00       5    6    1         0.7339571581E+01      0.1797870840E+02
          0                 5           2             4    7     1      -0.5294564862E-02       5    8    1        -0.3003867418E+00      0.7357382262E+00
          0                 6           1             4    7     1       0.6533256984E-04       5    8    1         0.3810662921E-02      0.9336931079E-02

    ------------------------------------------------
       NWT REQUIRED            6 OUTER ITERATIONS 
       AND A TOTAL OF         11 INNER ITERATIONS.
    ------------------------------------------------

 NO OUTPUT CONTROL FOR STRESS PERIOD   33   TIME STEP   29
 
 SOLVING FOR HEAD 
                                                   Max.-Head-Change                         Max.-Flux-Residual
  Residual-Control   Outer-Iter.   Inner-Iter.     Column Row Layer    Maximum-Head-Change  Column Row Layer    Maximum-Flux-Residual          L2-NORM 
          0                 1           2             5    6     1       0.1824344255E-01       5    6    1         0.9832198636E+00      0.2846495753E+01
          0                 2           2             7   13     1      -0.3416491297E-02       7   13    1        -0.1895061139E+00      0.3359227757E+00
          0                 3           2             4    7     1      -0.1510325943E+00       4    7    1        -0.8106554472E+01      0.1992076366E+02
          0                 4           2             4    7     1       0.1330242007E+00       5    6    1         0.7339574516E+01      0.1797871369E+02
          0                 5           2             4    7     1      -0.5294569592E-02       5    8    1        -0.3003869791E+00      0.7357386496E+00
          0                 6           1             4    7     1       0.6533262843E-04       5    8    1         0.3810665901E-02      0.9336919826E-02

    ------------------------------------------------
       NWT REQUIRED            6 OUTER ITERATIONS 
       AND A TOTAL OF         11 INNER ITERATIONS.
    ------------------------------------------------

 NO OUTPUT CONTROL FOR STRESS PERIOD   33   TIME STEP   30



 STREAM LISTING     PERIOD     33   STEP       30

 LAYER ROW COL. STREAM  RCH.  FLOW INTO     FLOW TO   FLOW OUT OF   OVRLND.     DIRECT     STREAM       STREAM     STREAM     STREAM   STREAMBED  STREAMBED
                SEG.NO.  NO.  STRM. RCH.    AQUIFER    STRM. RCH.    RUNOFF     PRECIP       ET          HEAD       DEPTH      WIDTH   CONDCTNC.   GRADIENT

   1    1    1     1     1    4.5749E+01  3.2289E-01   4.5426E+01  0.000E+00  0.000E+00  0.000E+00  1.09442E+03  1.372E+00  1.641E+01  7.386E-02  1.457E+00
   1    2    2     1     2    4.5426E+01  5.0022E-01   4.4925E+01  0.000E+00  0.000E+00  0.000E+00  1.08943E+03  1.369E+00  1.636E+01  1.145E-01  1.456E+00
   1    3    3     1     3    4.4925E+01  4.2678E-01   4.4499E+01  0.000E+00  0.000E+00  0.000E+00  1.08378E+03  1.366E+00  1.629E+01  9.776E-02  1.455E+00
   1    3    4     1     4    4.4499E+01  3.9314E-01   4.4106E+01  0.000E+00  0.000E+00  0.000E+00  1.07877E+03  1.363E+00  1.624E+01  9.011E-02  1.454E+00
   1    4    5     2     1    4.2106E+01  3.6245E-01   4.1743E+01  0.000E+00  0.000E+00  0.000E+00  1.07358E+03  1.647E+00  1.200E+01  7.800E-02  1.549E+00
   1    5    6     2     2    4.1743E+01  2.7835E-01   4.1465E+01  0.000E+00  0.000E+00  0.000E+00  1.06815E+03  1.639E+00  1.200E+01  6.000E-02  1.546E+00
   1    6    6     2     3    4.1465E+01  2.7796E-01   4.1187E+01  0.000E+00  0.000E+00  0.000E+00  1.06343E+03  1.633E+00  1.200E+01  6.000E-02  1.544E+00
   1    7    6     2     4    4.1187E+01  2.7756E-01   4.0909E+01  0.000E+00  0.000E+00  0.000E+00  1.05870E+03  1.626E+00  1.200E+01  6.000E-02  1.542E+00
   1    8    6     2     5    4.0909E+01  2.7716E-01   4.0632E+01  0.000E+00  0.000E+00  0.000E+00  1.05398E+03  1.619E+00  1.200E+01  6.000E-02  1.540E+00
   1    3    5     3     1    2.0000E+00  2.8252E-01   1.7175E+00  0.000E+00  0.000E+00  0.000E+00  1.07555E+03  1.909E+00  9.636E+00  7.227E-02  1.955E+00
   1    3    6     3     2    1.7175E+00  2.4905E-01   1.4684E+00  0.000E+00  0.000E+00  0.000E+00  1.07264E+03  1.727E+00  8.909E+00  6.682E-02  1.864E+00
   1    3    7     3     3    1.4684E+00  1.9718E-01   1.2712E+00  0.000E+00  0.000E+00  0.000E+00  1.06987E+03  1.555E+00  8.218E+00  5.547E-02  1.777E+00
   1    4    8     3     4    1.2712E+00  2.2567E-01   1.0456E+00  0.000E+00  0.000E+00  0.000E+00  1.06682E+03  1.364E+00  7.455E+00  6.709E-02  1.682E+00
   1    5    8     3     5    1.0456E+00  1.5790E-01   8.8768E-01  0.000E+00  0.000E+00  0.000E+00  1.06362E+03  1.164E+00  6.655E+00  4.991E-02  1.582E+00
   1    6    8     3     6    8.8768E-01  5.5980E-02   8.3170E-01  0.000E+00  0.000E+00  0.000E+00  1.06158E+03  1.036E+00  6.145E+00  1.844E-02  1.518E+00
   1    5   10     4     1    1.0000E+01  9.0919E-02   9.9091E+00  0.000E+00  0.000E+00  0.000E+00  1.07836E+03  6.368E-01  1.000E+01  2.500E-02  1.212E+00
   1    5    9     4     2    9.9091E+00  1.8158E-01   9.7275E+00  0.000E+00  0.000E+00  0.000E+00  1.07154E+03  6.315E-01  1.000E+01  5.000E-02  1.211E+00
   1    6    8     4     3    9.7275E+00  1.2689E-01   9.6006E+00  0.000E+00  0.000E+00  0.000E+00  1.06381E+03  6.256E-01  1.000E+01  3.500E-02  1.209E+00
   1    6    8     5     1    1.0432E+01  2.2686E-01   1.0205E+01  0.000E+00  0.000E+00  0.000E+00  1.05868E+03  6.790E-01  1.542E+01  6.166E-02  1.226E+00
   1    7    7     5     2    1.0205E+01  2.7894E-01   9.9265E+00  0.000E+00  0.000E+00  0.000E+00  1.05417E+03  6.732E-01  1.519E+01  7.594E-02  1.224E+00
   1    8    7     5     3    9.9265E+00  1.9221E-01   9.7343E+00  0.000E+00  0.000E+00  0.000E+00  1.04992E+03  6.676E-01  1.497E+01  5.241E-02  1.223E+00
   1    8    6     5     4    9.7343E+00  1.3577E-01   9.5985E+00  0.000E+00  0.000E+00  0.000E+00  1.04691E+03  6.637E-01  1.482E+01  3.706E-02  1.221E+00
   1    9    6     6     1    9.5985E+00  2.2097E-01   9.3776E+00  0.000E+00  0.000E+00  0.000E+00  1.04341E+03  6.828E-01  1.200E+01  6.000E-02  1.228E+00
   1   10    7     6     2    9.3776E+00  2.2039E-01   9.1572E+00  0.000E+00  0.000E+00  0.000E+00  1.03885E+03  6.732E-01  1.200E+01  6.000E-02  1.224E+00
   1   11    7     6     3    9.1572E+00  2.1981E-01   8.9374E+00  0.000E+00  0.000E+00  0.000E+00  1.03430E+03  6.636E-01  1.200E+01  6.000E-02  1.221E+00
   1   12    7     6     4    8.9374E+00  2.1923E-01   8.7181E+00  0.000E+00  0.000E+00  0.000E+00  1.02974E+03  6.539E-01  1.200E+01  6.000E-02  1.218E+00
   1   13    7     6     5    8.7181E+00 -9.6688E-02   8.8148E+00  0.000E+00  0.000E+00  0.000E+00  1.02656E+03  6.511E-01  1.200E+01  2.400E-01 -1.343E-01
   1   14    9     7     1    1.5000E+02  1.3413E+00   1.4866E+02  0.000E+00  0.000E+00  0.000E+00  1.03987E+03  2.288E+00  5.529E+01  5.593E-01  7.994E-01
   1   13    8     7     2    1.4866E+02  1.8568E+00   1.4680E+02  0.000E+00  0.000E+00  0.000E+00  1.03478E+03  2.279E+00  5.526E+01  6.148E-01  1.007E+00
   1   13    7     7     3    1.4680E+02  1.5225E+00   1.4528E+02  0.000E+00  0.000E+00  0.000E+00  1.02969E+03  2.270E+00  5.522E+01  5.584E-01  9.088E-01
   1   13    6     8     1    1.5409E+02  8.8051E-01   1.5321E+02  0.000E+00  0.000E+00  0.000E+00  1.02472E+03  2.842E+00  4.121E+01  4.200E-01  6.988E-01
   1   13    5     8     2    1.5321E+02  1.5502E-01   1.5306E+02  0.000E+00  0.000E+00  0.000E+00  1.01846E+03  2.839E+00  4.116E+01  4.195E-01  1.232E-01
   1   13    4     8     3    1.5306E+02 -2.4702E+00   1.5553E+02  0.000E+00  0.000E+00  0.000E+00  1.01222E+03  2.847E+00  4.128E+01  4.206E+00 -1.957E-01
   1   13    3     8     4    1.5553E+02 -3.6618E+00   1.5919E+02  0.000E+00  0.000E+00  0.000E+00  1.00599E+03  2.868E+00  4.158E+01  4.238E+00 -2.880E-01
   1   13    2     8     5    1.5919E+02 -2.5986E+00   1.6179E+02  0.000E+00  0.000E+00  0.000E+00  9.99764E+02  2.889E+00  4.189E+01  4.269E+00 -2.029E-01
   1   13    1     8     6    1.6179E+02 -2.0087E+00   1.6380E+02  0.000E+00  0.000E+00  0.000E+00  9.94780E+02  2.905E+00  4.212E+01  2.575E+00 -2.600E-01
   1    8    6     9     1    4.0632E+01  0.0000E+00   4.0632E+01  0.000E+00  0.000E+00  0.000E+00  1.08401E+03  5.255E+00  4.000E+00  0.000E+00  2.752E+00
   1    8    5     9     2    4.0632E+01  0.0000E+00   4.0632E+01  0.000E+00  0.000E+00  0.000E+00  1.08351E+03  5.255E+00  4.000E+00  0.000E+00  2.752E+00





UNSATURATED ZONE PACKAGE VOLUMETRIC BUDGET FOR  TIME STEP    30 STRESS PERIOD   33
  ------------------------------------------------------------------------------



     CUMULATIVE VOLUMES      L**3       RATES FOR THIS TIME STEP      L**3/T
     ------------------                 ------------------------

           IN:                                      IN:
           ---                                      ---
        INFILTRATION =  1385196597.2787          INFILTRATION =          49.5226

          OUT:                                     OUT:
          ----                                     ----
              UZF ET =  1245294617.4674                UZF ET =          49.5675
        UZF RECHARGE =       73224.0000          UZF RECHARGE =       0.0000E+00

            IN - OUT =   139828755.8112              IN - OUT =      -4.4912E-02

          STORAGE:                                 STORAGE:
          --------                                 --------
      STORAGE CHANGE =   139830112.7476        STORAGE CHANGE =      -4.4913E-02

 PERCENT DISCREPANCY IS DIFFERENCE BETWEEN IN-OUT MINUS CHANGE IN STORAGE
 DIVIDED BY THE AVERAGE OF IN AND OUT TIMES 100

 PERCENT DISCREPANCY =          -0.00     PERCENT DISCREPANCY =           0.00






1
  VOLUMETRIC BUDGET FOR AGRICULTURAL FIELDS AT  END OF TIME STEP   30, STRESS PERIOD  33
  ------------------------------------------------------------------------------

     CUMULATIVE VOLUMES      L**3       RATES FOR THIS TIME STEP      L**3/T
     ------------------                 ------------------------

           IN:                                      IN:
           ---                                      ---
               AG WELLS  =   381194528.0000                 AG WELLS  =           8.0422
      DIVERSION SEGMENTS =   932660864.0000        DIVERSION SEGMENTS =          40.6321
       IRRIGATION PONDS  =           0.0000         IRRIGATION PONDS  =           0.0000
           GW IRRIGATION =           0.0000             GW IRRIGATION =           0.0000
           SW IRRIGATION =           0.0000             SW IRRIGATION =           0.0000
        SYSTEM LOSSES GW =           0.0000          SYSTEM LOSSES GW =           0.0000
        SYSTEM LOSSES SW =           0.0000          SYSTEM LOSSES SW =           0.0000

                TOTAL IN =  1313855360.0000                  TOTAL IN =          48.6743

          OUT:                                     OUT:
          ----                                     ----
               AG WELLS  =           0.0000                 AG WELLS  =           0.0000
      DIVERSION SEGMENTS =           0.0000        DIVERSION SEGMENTS =           0.0000
       IRRIGATION PONDS  =           0.0000         IRRIGATION PONDS  =           0.0000
           GW IRRIGATION =   381194528.0000             GW IRRIGATION =           8.0422
           SW IRRIGATION =   932680256.0000             SW IRRIGATION =          40.6329
        SYSTEM LOSSES GW =           0.0000          SYSTEM LOSSES GW =           0.0000
        SYSTEM LOSSES SW =           0.0000          SYSTEM LOSSES SW =           0.0000

               TOTAL OUT =  1313874816.0000                 TOTAL OUT =          48.6751

                IN - OUT =      -19456.0000                  IN - OUT =      -8.1253E-04

     PERCENT DISCREPANCY =          -0.00         PERCENT DISCREPANCY =          -0.00



1
  VOLUMETRIC BUDGET FOR ENTIRE MODEL AT END OF TIME STEP   30, STRESS PERIOD  33
  ------------------------------------------------------------------------------

     CUMULATIVE VOLUMES      L**3       RATES FOR THIS TIME STEP      L**3/T
     ------------------                 ------------------------

           IN:                                      IN:
           ---                                      ---
             STORAGE     =   640996480.0000               STORAGE     =           7.0603
       CONSTANT HEAD     =           0.0000         CONSTANT HEAD     =           0.0000
     HEAD DEP BOUNDS     =    24079064.0000       HEAD DEP BOUNDS     =           0.2861
      STREAM LEAKAGE     =  1009090816.0000        STREAM LEAKAGE     =          12.1545
        UZF RECHARGE     =       73223.9531          UZF RECHARGE     =           0.0000
               GW ET     =           0.0000                 GW ET     =           0.0000
     SURFACE LEAKAGE     =           0.0000       SURFACE LEAKAGE     =           0.0000
           AG WELLS      =           0.0000             AG WELLS      =           0.0000

                TOTAL IN =  1674239488.0000                  TOTAL IN =          19.5009

          OUT:                                     OUT:
          ----                                     ----
             STORAGE     =   356010912.0000               STORAGE     =           0.3353
       CONSTANT HEAD     =           0.0000         CONSTANT HEAD     =           0.0000
     HEAD DEP BOUNDS     =    24498276.0000       HEAD DEP BOUNDS     =           0.2873
      STREAM LEAKAGE     =   909557824.0000        STREAM LEAKAGE     =          10.8359
        UZF RECHARGE     =           0.0000          UZF RECHARGE     =           0.0000
               GW ET     =     2982784.2500                 GW ET     =           0.0000
     SURFACE LEAKAGE     =           0.0000       SURFACE LEAKAGE     =           0.0000
           AG WELLS      =   381194528.0000             AG WELLS      =           8.0422

               TOTAL OUT =  1674244224.0000                 TOTAL OUT =          19.5006

                IN - OUT =       -4736.0000                  IN - OUT =       3.3760E-04

     PERCENT DISCREPANCY =          -0.00         PERCENT DISCREPANCY =           0.00






         TIME SUMMARY AT END OF TIME STEP   30 IN STRESS PERIOD   33
                    SECONDS     MINUTES      HOURS       DAYS        YEARS
                    -----------------------------------------------------------
   TIME STEP LENGTH  87667.      1461.1      24.352      1.0147     2.77799E-03
 STRESS PERIOD TIME 2.63000E+06  43833.      730.56      30.440     8.33397E-02
         TOTAL TIME 8.42463E+07 1.40410E+06  23402.      975.07      2.6696    
1
1
                            STRESS PERIOD NO.   34, LENGTH =   2630000.    
                            -----------------------------------------------

                              NUMBER OF TIME STEPS =    30

                               MULTIPLIER FOR DELT =     1.000

                            INITIAL TIME STEP SIZE =   87666.66    

 REUSING NON-PARAMETER GHB CELLS FROM LAST STRESS PERIOD

      2 GHB CELLS

 REUSING STREAM SEGMENT DATA FROM LAST STRESS PERIOD



            AREAL INFILTRATION RATE
 READING ON UNIT   19 WITH FORMAT: (FREE)              

            1           2           3           4           5           6           7           8           9          10
 ........................................................................................................................
   1   1.0000E-10  2.0000E-10   0.000       0.000       0.000       0.000       0.000       0.000       0.000       0.000    
   2   2.0000E-10  1.0000E-10  2.0000E-10   0.000       0.000      8.0000E-10  8.0000E-10  5.0000E-10   0.000       0.000    
   3    0.000      5.0000E-10  1.0000E-10  1.0000E-10  8.0000E-10  8.0000E-10  5.0000E-10  5.0000E-10   0.000       0.000    
   4   8.0000E-10  5.0000E-10  1.0000E-10  1.0000E-10  1.0000E-10  1.0000E-10  1.0000E-10  1.0000E-10  2.0000E-10   0.000    
   5   8.0000E-10  5.0000E-10  1.0000E-10  1.0000E-10  1.0000E-10  1.0000E-10  1.0000E-10  1.0000E-10  1.0000E-10  1.0000E-10
   6   8.0000E-10  5.0000E-10  5.0000E-10  2.0000E-10  2.0000E-10  1.0000E-10  1.0000E-10  1.0000E-10  1.0000E-10  5.0000E-10
   7   8.0000E-10  5.0000E-10  5.0000E-10  2.0000E-10  2.0000E-10  1.0000E-10  1.0000E-10  2.0000E-10  2.0000E-10   0.000    
   8    0.000      5.0000E-10  5.0000E-10  2.0000E-10  2.0000E-10  1.0000E-10  1.0000E-10  2.0000E-10  5.0000E-10   0.000    
   9    0.000      5.0000E-10  5.0000E-10  2.0000E-10  2.0000E-10  1.0000E-10  1.0000E-10  2.0000E-10  5.0000E-10   0.000    
  10    0.000      5.0000E-10  5.0000E-10  2.0000E-10  2.0000E-10  1.0000E-10  1.0000E-10  2.0000E-10  5.0000E-10  8.0000E-10
  11    0.000      1.0000E-10  1.0000E-10  1.0000E-10  1.0000E-10  1.0000E-10  1.0000E-10  2.0000E-10  5.0000E-10   0.000    
  12   1.0000E-10  1.0000E-10  1.0000E-10  1.0000E-10  1.0000E-10  1.0000E-10  1.0000E-10  1.0000E-10  2.0000E-10   0.000    
  13   1.0000E-10  1.0000E-10  2.0000E-10  2.0000E-10  2.0000E-10  2.0000E-10  2.0000E-10  1.0000E-10  1.0000E-10   0.000    
  14    0.000      2.0000E-10  5.0000E-10  5.0000E-10  5.0000E-10  5.0000E-10  5.0000E-10  2.0000E-10  1.0000E-10   0.000    
  15    0.000       0.000      8.0000E-10  8.0000E-10  8.0000E-10  8.0000E-10   0.000       0.000       0.000       0.000    

                  ET RATE =  7.500000E-08

 USING ET EXTINCTION DEPTH FROM PREVIOUS STRESS PERIOD. CURRENT PERIOD IS:      34

 USING EXTINCTION WATER CONTENT FROM PREVIOUS STRESS PERIOD. CURRENT PERIOD IS:      34

 USING AIR ENTRY PRESSURE FROM PREVIOUS STRESS PERIOD. CURRENT PERIOD IS:      34

 USING ROOT PRESSURE HEAD FROM PREVIOUS STRESS PERIOD. CURRENT PERIOD IS:      34

 USING ROOT ACTIVITY FROM PREVIOUS STRESS PERIOD. CURRENT PERIOD IS:      34

 PROCESSING AG STRESS PERIOD DATA

 READING AG STRESS PERIOD DATA

 READING IRRIGATION SEGMENT

 READING IRRIGATION WELL

 READING SUPPLEMENTAL WELL

 NO IRRPOND OR REUSING IRRPOND DATA FROM LAST STRESS PERIOD

 END PROCESSING AG STRESS PERIOD DATA OPTIONS
 
 SOLVING FOR HEAD 
                                                   Max.-Head-Change                         Max.-Flux-Residual
  Residual-Control   Outer-Iter.   Inner-Iter.     Column Row Layer    Maximum-Head-Change  Column Row Layer    Maximum-Flux-Residual          L2-NORM 
          0                 1           2             5    6     1       0.1829555114E-01       5    6    1         0.9859767669E+00      0.2626321175E+01
          0                 2           2             7   13     1      -0.2288918310E-02       7   13    1        -0.1269882297E+00      0.2883123501E+00
          0                 3           2             7   13     1       0.1558243021E-03       7   13    1         0.8886565490E-02      0.2005840000E-01
          0                 4           1             7   13     1      -0.6197041270E-05       7   13    1        -0.3632452258E-03      0.8127710613E-03

    ------------------------------------------------
       NWT REQUIRED            4 OUTER ITERATIONS 
       AND A TOTAL OF          7 INNER ITERATIONS.
    ------------------------------------------------

 NO OUTPUT CONTROL FOR STRESS PERIOD   34   TIME STEP    1
 
 SOLVING FOR HEAD 
                                                   Max.-Head-Change                         Max.-Flux-Residual
  Residual-Control   Outer-Iter.   Inner-Iter.     Column Row Layer    Maximum-Head-Change  Column Row Layer    Maximum-Flux-Residual          L2-NORM 
          0                 1           2             5    6     1       0.1765737582E-01       5    6    1         0.9508591014E+00      0.2693008131E+01
          0                 2           2             5    6     1      -0.1717579714E-02       5    6    1        -0.9508580624E-01      0.2671762556E+00
          0                 3           2             4    7     1      -0.3458755083E-01       4    7    1        -0.1856467566E+01      0.4567847148E+01
          0                 4           2             4    7     1       0.3610870227E-01       4    7    1         0.1992285918E+01      0.4880119038E+01
          0                 5           2             4    7     1      -0.1437147916E-02       5    8    1        -0.8152932684E-01      0.1996937920E+00
          0                 6           1             4    7     1       0.1773379961E-04       5    8    1         0.1034285424E-02      0.2533449558E-02

    ------------------------------------------------
       NWT REQUIRED            6 OUTER ITERATIONS 
       AND A TOTAL OF         11 INNER ITERATIONS.
    ------------------------------------------------

 NO OUTPUT CONTROL FOR STRESS PERIOD   34   TIME STEP    2
 
 SOLVING FOR HEAD 
                                                   Max.-Head-Change                         Max.-Flux-Residual
  Residual-Control   Outer-Iter.   Inner-Iter.     Column Row Layer    Maximum-Head-Change  Column Row Layer    Maximum-Flux-Residual          L2-NORM 
          0                 1           2             5    6     1       0.1705185082E-01       5    6    1         0.9176879347E+00      0.2464860517E+01
          0                 2           2             5    6     1      -0.1658678647E-02       5    6    1        -0.9176868962E-01      0.2453115286E+00
          0                 3           2             4    7     1      -0.3459143314E-01       4    7    1        -0.1856671454E+01      0.4568372390E+01
          0                 4           2             4    7     1       0.3611238452E-01       4    7    1         0.1992488773E+01      0.4880636836E+01
          0                 5           2             4    7     1      -0.1437294473E-02       5    8    1        -0.8153826215E-01      0.1997149876E+00
          0                 6           1             4    7     1       0.1773560822E-04       5    8    1         0.1034398759E-02      0.2533713800E-02

    ------------------------------------------------
       NWT REQUIRED            6 OUTER ITERATIONS 
       AND A TOTAL OF         11 INNER ITERATIONS.
    ------------------------------------------------

 NO OUTPUT CONTROL FOR STRESS PERIOD   34   TIME STEP    3
 
 SOLVING FOR HEAD 
                                                   Max.-Head-Change                         Max.-Flux-Residual
  Residual-Control   Outer-Iter.   Inner-Iter.     Column Row Layer    Maximum-Head-Change  Column Row Layer    Maximum-Flux-Residual          L2-NORM 
          0                 1           2             5    6     1       0.1648015084E-01       5    6    1         0.8862258553E+00      0.2395163247E+01
          0                 2           2             5    6     1      -0.1603067975E-02       5    6    1        -0.8862249177E-01      0.2384130357E+00
          0                 3           2             4    7     1      -0.3459523392E-01       4    7    1        -0.1856871346E+01      0.4569114189E+01
          0                 4           2             4    7     1       0.3611590695E-01       4    7    1         0.1992682884E+01      0.4881132541E+01
          0                 5           2             4    7     1      -0.1437434668E-02       5    8    1        -0.8154678618E-01      0.1997352706E+00
          0                 6           1             4    7     1       0.1773733819E-04       5    8    1         0.1034506857E-02      0.2533973084E-02

    ------------------------------------------------
       NWT REQUIRED            6 OUTER ITERATIONS 
       AND A TOTAL OF         11 INNER ITERATIONS.
    ------------------------------------------------

 NO OUTPUT CONTROL FOR STRESS PERIOD   34   TIME STEP    4
 
 SOLVING FOR HEAD 
                                                   Max.-Head-Change                         Max.-Flux-Residual
  Residual-Control   Outer-Iter.   Inner-Iter.     Column Row Layer    Maximum-Head-Change  Column Row Layer    Maximum-Flux-Residual          L2-NORM 
          0                 1           2             5    7     1       0.1606845930E-01       5    6    1         0.8565175645E+00      0.2329814847E+01
          0                 2           2             5    7     1      -0.1563022834E-02       5    6    1        -0.8565167191E-01      0.2319423540E+00
          0                 3           2             4    7     1      -0.3459895605E-01       4    7    1        -0.1857067373E+01      0.4569826872E+01
          0                 4           2             4    7     1       0.3611928065E-01       5    8    1         0.1992876790E+01      0.4881606721E+01
          0                 5           2             4    7     1      -0.1437568944E-02       5    8    1        -0.8155492863E-01      0.1997546717E+00
          0                 6           1             4    7     1       0.1773899491E-04       5    8    1         0.1034610093E-02      0.2534216145E-02

    ------------------------------------------------
       NWT REQUIRED            6 OUTER ITERATIONS 
       AND A TOTAL OF         11 INNER ITERATIONS.
    ------------------------------------------------

 NO OUTPUT CONTROL FOR STRESS PERIOD   34   TIME STEP    5
 
 SOLVING FOR HEAD 
                                                   Max.-Head-Change                         Max.-Flux-Residual
  Residual-Control   Outer-Iter.   Inner-Iter.     Column Row Layer    Maximum-Head-Change  Column Row Layer    Maximum-Flux-Residual          L2-NORM 
          0                 1           2             5    7     1       0.1577764273E-01       5    7    1         0.8351092775E+00      0.2268422004E+01
          0                 2           2             5    7     1      -0.1534734589E-02       5    7    1        -0.8351093036E-01      0.2258601113E+00
          0                 3           2             4    7     1      -0.3460260349E-01       4    7    1        -0.1857259726E+01      0.4570513329E+01
          0                 4           2             4    7     1       0.3612251458E-01       5    8    1         0.1993067072E+01      0.4882060847E+01
          0                 5           2             4    7     1      -0.1437697656E-02       5    8    1        -0.8156271291E-01      0.1997732382E+00
          0                 6           1             4    7     1       0.1774058340E-04       5    8    1         0.1034708807E-02      0.2534447333E-02

    ------------------------------------------------
       NWT REQUIRED            6 OUTER ITERATIONS 
       AND A TOTAL OF         11 INNER ITERATIONS.
    ------------------------------------------------

 NO OUTPUT CONTROL FOR STRESS PERIOD   34   TIME STEP    6
 
 SOLVING FOR HEAD 
                                                   Max.-Head-Change                         Max.-Flux-Residual
  Residual-Control   Outer-Iter.   Inner-Iter.     Column Row Layer    Maximum-Head-Change  Column Row Layer    Maximum-Flux-Residual          L2-NORM 
          0                 1           2             4    7     1       0.1565513736E-01       5    7    1         0.8199977018E+00      0.2210676778E+01
          0                 2           2             4    7     1      -0.1522819150E-02       5    7    1        -0.8199978988E-01      0.2201375623E+00
          0                 3           2             4    7     1      -0.3460617945E-01       5    8    1        -0.1857599238E+01      0.4571173538E+01
          0                 4           2             4    7     1       0.3612561766E-01       5    8    1         0.1993249169E+01      0.4882495950E+01
          0                 5           2             4    7     1      -0.1437821161E-02       5    8    1        -0.8157016237E-01      0.1997910641E+00
          0                 6           1             4    7     1       0.1774210772E-04       5    8    1         0.1034803303E-02      0.2534685052E-02

    ------------------------------------------------
       NWT REQUIRED            6 OUTER ITERATIONS 
       AND A TOTAL OF         11 INNER ITERATIONS.
    ------------------------------------------------

 NO OUTPUT CONTROL FOR STRESS PERIOD   34   TIME STEP    7
 
 SOLVING FOR HEAD 
                                                   Max.-Head-Change                         Max.-Flux-Residual
  Residual-Control   Outer-Iter.   Inner-Iter.     Column Row Layer    Maximum-Head-Change  Column Row Layer    Maximum-Flux-Residual          L2-NORM 
          0                 1           2             4    7     1       0.1555378378E-01       4    7    1         0.8134248780E+00      0.2156266077E+01
          0                 2           2             4    7     1      -0.1512960488E-02       4    7    1        -0.8134257761E-01      0.2147428604E+00
          0                 3           2             4    7     1      -0.3460968846E-01       5    8    1        -0.1857928214E+01      0.4571809576E+01
          0                 4           2             4    7     1       0.3612859887E-01       5    8    1         0.1993423641E+01      0.4882913418E+01
          0                 5           2             4    7     1      -0.1437939816E-02       5    8    1        -0.8157730006E-01      0.1998081335E+00
          0                 6           1             4    7     1       0.1774357188E-04       5    8    1         0.1034893815E-02      0.2534894970E-02

    ------------------------------------------------
       NWT REQUIRED            6 OUTER ITERATIONS 
       AND A TOTAL OF         11 INNER ITERATIONS.
    ------------------------------------------------

 NO OUTPUT CONTROL FOR STRESS PERIOD   34   TIME STEP    8
 
 SOLVING FOR HEAD 
                                                   Max.-Head-Change                         Max.-Flux-Residual
  Residual-Control   Outer-Iter.   Inner-Iter.     Column Row Layer    Maximum-Head-Change  Column Row Layer    Maximum-Flux-Residual          L2-NORM 
          0                 1           2             4    7     1       0.1544542866E-01       4    7    1         0.8081624391E+00      0.2104926722E+01
          0                 2           2             4    7     1      -0.1502420737E-02       4    7    1        -0.8081635079E-01      0.2096508675E+00
          0                 3           2             4    7     1      -0.3461313129E-01       5    8    1        -0.1858241216E+01      0.4572422397E+01
          0                 4           2             4    7     1       0.3613146483E-01       5    8    1         0.1993590920E+01      0.4883314226E+01
          0                 5           2             4    7     1      -0.1438053883E-02       5    8    1        -0.8158414354E-01      0.1998245320E+00
          0                 6           1             4    7     1       0.1774497924E-04       5    8    1         0.1034980603E-02      0.2535102589E-02

    ------------------------------------------------
       NWT REQUIRED            6 OUTER ITERATIONS 
       AND A TOTAL OF         11 INNER ITERATIONS.
    ------------------------------------------------

 NO OUTPUT CONTROL FOR STRESS PERIOD   34   TIME STEP    9
 
 SOLVING FOR HEAD 
                                                   Max.-Head-Change                         Max.-Flux-Residual
  Residual-Control   Outer-Iter.   Inner-Iter.     Column Row Layer    Maximum-Head-Change  Column Row Layer    Maximum-Flux-Residual          L2-NORM 
          0                 1           2             4    7     1       0.1533062977E-01       4    7    1         0.8025296069E+00      0.2056417931E+01
          0                 2           2             4    7     1      -0.1491254156E-02       4    7    1        -0.8025308276E-01      0.2048378082E+00
          0                 3           2             4    7     1      -0.3461651085E-01       5    8    1        -0.1858539406E+01      0.4573013645E+01
          0                 4           2             4    7     1       0.3613422223E-01       5    8    1         0.1993751445E+01      0.4883699368E+01
          0                 5           2             4    7     1      -0.1438163630E-02       5    8    1        -0.8159071083E-01      0.1998402979E+00
          0                 6           1             4    7     1       0.1774633352E-04       5    8    1         0.1035063882E-02      0.2535305823E-02

    ------------------------------------------------
       NWT REQUIRED            6 OUTER ITERATIONS 
       AND A TOTAL OF         11 INNER ITERATIONS.
    ------------------------------------------------

 NO OUTPUT CONTROL FOR STRESS PERIOD   34   TIME STEP   10
 
 SOLVING FOR HEAD 
                                                   Max.-Head-Change                         Max.-Flux-Residual
  Residual-Control   Outer-Iter.   Inner-Iter.     Column Row Layer    Maximum-Head-Change  Column Row Layer    Maximum-Flux-Residual          L2-NORM 
          0                 1           2             4    7     1       0.1521003818E-01       4    7    1         0.7965626698E+00      0.2010505173E+01
          0                 2           2             4    7     1      -0.1479524076E-02       4    7    1        -0.7965640243E-01      0.2002805070E+00
          0                 3           2             4    7     1      -0.3461982940E-01       5    8    1        -0.1858823612E+01      0.4573583983E+01
          0                 4           2             4    7     1       0.3613687776E-01       5    8    1         0.1993905630E+01      0.4884069792E+01
          0                 5           2             4    7     1      -0.1438269322E-02       5    8    1        -0.8159701884E-01      0.1998554520E+00
          0                 6           1             4    7     1       0.1774763749E-04       5    8    1         0.1035143894E-02      0.2535497382E-02

    ------------------------------------------------
       NWT REQUIRED            6 OUTER ITERATIONS 
       AND A TOTAL OF         11 INNER ITERATIONS.
    ------------------------------------------------

 NO OUTPUT CONTROL FOR STRESS PERIOD   34   TIME STEP   11
 
 SOLVING FOR HEAD 
                                                   Max.-Head-Change                         Max.-Flux-Residual
  Residual-Control   Outer-Iter.   Inner-Iter.     Column Row Layer    Maximum-Head-Change  Column Row Layer    Maximum-Flux-Residual          L2-NORM 
          0                 1           2             4    7     1       0.1508440366E-01       4    7    1         0.7903027553E+00      0.1967011186E+01
          0                 2           2             4    7     1      -0.1467303431E-02       4    7    1        -0.7903042275E-01      0.1959616526E+00
          0                 3           2             4    7     1      -0.3462308635E-01       5    8    1        -0.1859094721E+01      0.4574134542E+01
          0                 4           2             4    7     1       0.3613943576E-01       5    8    1         0.1994053777E+01      0.4884426156E+01
          0                 5           2             4    7     1      -0.1438371132E-02       5    8    1        -0.8160307985E-01      0.1998700280E+00
          0                 6           1             4    7     1       0.1774889386E-04       5    8    1         0.1035220749E-02      0.2535676276E-02

    ------------------------------------------------
       NWT REQUIRED            6 OUTER ITERATIONS 
       AND A TOTAL OF         11 INNER ITERATIONS.
    ------------------------------------------------

 NO OUTPUT CONTROL FOR STRESS PERIOD   34   TIME STEP   12
 
 SOLVING FOR HEAD 
                                                   Max.-Head-Change                         Max.-Flux-Residual
  Residual-Control   Outer-Iter.   Inner-Iter.     Column Row Layer    Maximum-Head-Change  Column Row Layer    Maximum-Flux-Residual          L2-NORM 
          0                 1           2             4    7     1       0.1495401743E-01       4    7    1         0.7837666281E+00      0.1925729772E+01
          0                 2           2             4    7     1      -0.1454620554E-02       4    7    1        -0.7837682029E-01      0.1918613776E+00
          0                 3           2             4    7     1      -0.3462628638E-01       5    8    1        -0.1859353637E+01      0.4574666439E+01
          0                 4           2             4    7     1       0.3614190304E-01       5    8    1         0.1994196305E+01      0.4884769433E+01
          0                 5           2             4    7     1      -0.1438469331E-02       5    8    1        -0.8160891108E-01      0.1998840734E+00
          0                 6           1             4    7     1       0.1775010565E-04       5    8    1         0.1035294705E-02      0.2535877832E-02

    ------------------------------------------------
       NWT REQUIRED            6 OUTER ITERATIONS 
       AND A TOTAL OF         11 INNER ITERATIONS.
    ------------------------------------------------

 NO OUTPUT CONTROL FOR STRESS PERIOD   34   TIME STEP   13
 
 SOLVING FOR HEAD 
                                                   Max.-Head-Change                         Max.-Flux-Residual
  Residual-Control   Outer-Iter.   Inner-Iter.     Column Row Layer    Maximum-Head-Change  Column Row Layer    Maximum-Flux-Residual          L2-NORM 
          0                 1           2             4    7     1       0.1481969408E-01       4    7    1         0.7769988684E+00      0.1886512861E+01
          0                 2           2             4    7     1      -0.1441554683E-02       4    7    1        -0.7770005323E-01      0.1879677968E+00
          0                 3           2             4    7     1      -0.3462942846E-01       5    8    1        -0.1859601050E+01      0.4575179536E+01
          0                 4           2             4    7     1       0.3614428392E-01       5    8    1         0.1994333501E+01      0.4885100273E+01
          0                 5           2             4    7     1      -0.1438564092E-02       5    8    1        -0.8161452424E-01      0.1998976223E+00
          0                 6           1             4    7     1       0.1775127476E-04       5    8    1         0.1035365900E-02      0.2536029398E-02

    ------------------------------------------------
       NWT REQUIRED            6 OUTER ITERATIONS 
       AND A TOTAL OF         11 INNER ITERATIONS.
    ------------------------------------------------

 NO OUTPUT CONTROL FOR STRESS PERIOD   34   TIME STEP   14
 
 SOLVING FOR HEAD 
                                                   Max.-Head-Change                         Max.-Flux-Residual
  Residual-Control   Outer-Iter.   Inner-Iter.     Column Row Layer    Maximum-Head-Change  Column Row Layer    Maximum-Flux-Residual          L2-NORM 
          0                 1           2             4    7     1       0.1468178975E-01       4    7    1         0.7700196018E+00      0.1849210209E+01
          0                 2           2             4    7     1      -0.1428140462E-02       4    7    1        -0.7700213423E-01      0.1842567474E+00
          0                 3           2             4    7     1      -0.3463251463E-01       5    8    1        -0.1859837663E+01      0.4575677608E+01
          0                 4           2             4    7     1       0.3614658287E-01       5    6    1         0.1994463816E+01      0.4885414048E+01
          0                 5           2             4    7     1      -0.1438655592E-02       5    6    1        -0.8161615278E-01      0.1999033467E+00
          0                 6           1             4    7     1       0.1775240354E-04       5    6    1         0.1035375387E-02      0.2535971950E-02

    ------------------------------------------------
       NWT REQUIRED            6 OUTER ITERATIONS 
       AND A TOTAL OF         11 INNER ITERATIONS.
    ------------------------------------------------

 NO OUTPUT CONTROL FOR STRESS PERIOD   34   TIME STEP   15
 
 SOLVING FOR HEAD 
                                                   Max.-Head-Change                         Max.-Flux-Residual
  Residual-Control   Outer-Iter.   Inner-Iter.     Column Row Layer    Maximum-Head-Change  Column Row Layer    Maximum-Flux-Residual          L2-NORM 
          0                 1           2             4    7     1       0.1454062974E-01       4    7    1         0.7628472920E+00      0.1813674824E+01
          0                 2           2             4    7     1      -0.1414409534E-02       4    7    1        -0.7628490976E-01      0.1807228807E+00
          0                 3           2             4    7     1      -0.3463554712E-01       5    8    1        -0.1860064097E+01      0.4576158831E+01
          0                 4           2             4    7     1       0.3614880439E-01       5    8    1         0.1994580340E+01      0.4885712561E+01
          0                 5           2             4    7     1      -0.1438744011E-02       5    8    1        -0.8161186772E-01      0.1999027392E+00
          0                 6           1             4    7     1       0.1775349480E-04       5    8    1         0.1035176381E-02      0.2535728824E-02

    ------------------------------------------------
       NWT REQUIRED            6 OUTER ITERATIONS 
       AND A TOTAL OF         11 INNER ITERATIONS.
    ------------------------------------------------

 NO OUTPUT CONTROL FOR STRESS PERIOD   34   TIME STEP   16
 
 SOLVING FOR HEAD 
                                                   Max.-Head-Change                         Max.-Flux-Residual
  Residual-Control   Outer-Iter.   Inner-Iter.     Column Row Layer    Maximum-Head-Change  Column Row Layer    Maximum-Flux-Residual          L2-NORM 
          0                 1           2             4    7     1       0.1439692450E-01       4    7    1         0.7555209188E+00      0.1779798753E+01
          0                 2           2             4    7     1      -0.1400431010E-02       4    7    1        -0.7555227791E-01      0.1773540594E+00
          0                 3           2             4    7     1      -0.3463852561E-01       5    8    1        -0.1860281050E+01      0.4576624181E+01
          0                 4           2             4    7     1       0.3615095283E-01       5    8    1         0.1994703272E+01      0.4886009992E+01
          0                 5           2             4    7     1      -0.1438829520E-02       5    8    1        -0.8161689669E-01      0.1999149089E+00
          0                 6           1             4    7     1       0.1775455033E-04       5    8    1         0.1035240154E-02      0.2535885706E-02

    ------------------------------------------------
       NWT REQUIRED            6 OUTER ITERATIONS 
       AND A TOTAL OF         11 INNER ITERATIONS.
    ------------------------------------------------

 NO OUTPUT CONTROL FOR STRESS PERIOD   34   TIME STEP   17
 
 SOLVING FOR HEAD 
                                                   Max.-Head-Change                         Max.-Flux-Residual
  Residual-Control   Outer-Iter.   Inner-Iter.     Column Row Layer    Maximum-Head-Change  Column Row Layer    Maximum-Flux-Residual          L2-NORM 
          0                 1           2             4    7     1       0.1425079338E-01       4    7    1         0.7480478343E+00      0.1747446702E+01
          0                 2           2             4    7     1      -0.1386216500E-02       4    7    1        -0.7480497399E-01      0.1741364864E+00
          0                 3           2             4    7     1      -0.3464145150E-01       5    8    1        -0.1860489012E+01      0.4577074697E+01
          0                 4           2             4    7     1       0.3615303046E-01       5    8    1         0.1994821880E+01      0.4886293611E+01
          0                 5           2             4    7     1      -0.1438912211E-02       5    8    1        -0.8162174880E-01      0.1999214531E+00
          0                 6           1             4    7     1       0.1775557034E-04       5    8    1         0.1035301676E-02      0.2535870973E-02

    ------------------------------------------------
       NWT REQUIRED            6 OUTER ITERATIONS 
       AND A TOTAL OF         11 INNER ITERATIONS.
    ------------------------------------------------

 NO OUTPUT CONTROL FOR STRESS PERIOD   34   TIME STEP   18
 
 SOLVING FOR HEAD 
                                                   Max.-Head-Change                         Max.-Flux-Residual
  Residual-Control   Outer-Iter.   Inner-Iter.     Column Row Layer    Maximum-Head-Change  Column Row Layer    Maximum-Flux-Residual          L2-NORM 
          0                 1           2             4    7     1       0.1410289147E-01       4    7    1         0.7404637119E+00      0.1716539860E+01
          0                 2           2             4    7     1      -0.1371829729E-02       4    7    1        -0.7404656542E-01      0.1710597492E+00
          0                 3           2             4    7     1      -0.3464432705E-01       5    8    1        -0.1860688576E+01      0.4577511822E+01
          0                 4           2             4    7     1       0.3615504395E-01       5    8    1         0.1994925293E+01      0.4886557528E+01
          0                 5           2             4    7     1      -0.1438992350E-02       5    8    1        -0.8161468005E-01      0.1999131291E+00
          0                 6           1             4    7     1       0.1775655933E-04       4    8    1         0.1035090834E-02      0.2535420170E-02

    ------------------------------------------------
       NWT REQUIRED            6 OUTER ITERATIONS 
       AND A TOTAL OF         11 INNER ITERATIONS.
    ------------------------------------------------

 NO OUTPUT CONTROL FOR STRESS PERIOD   34   TIME STEP   19
 
 SOLVING FOR HEAD 
                                                   Max.-Head-Change                         Max.-Flux-Residual
  Residual-Control   Outer-Iter.   Inner-Iter.     Column Row Layer    Maximum-Head-Change  Column Row Layer    Maximum-Flux-Residual          L2-NORM 
          0                 1           2             4    7     1       0.1395328414E-01       4    7    1         0.7327730312E+00      0.1686966551E+01
          0                 2           2             4    7     1      -0.1357277054E-02       4    7    1        -0.7327750024E-01      0.1681153799E+00
          0                 3           2             4    7     1      -0.3464714960E-01       5    8    1        -0.1860880002E+01      0.4577934993E+01
          0                 4           2             4    7     1       0.3615699098E-01       5    6    1         0.1995036019E+01      0.4886826145E+01
          0                 5           2             4    7     1      -0.1439069843E-02       5    8    1        -0.8161920808E-01      0.1999241210E+00
          0                 6           1             4    7     1       0.1775751550E-04       4    8    1         0.1035147622E-02      0.2535558031E-02

    ------------------------------------------------
       NWT REQUIRED            6 OUTER ITERATIONS 
       AND A TOTAL OF         11 INNER ITERATIONS.
    ------------------------------------------------

 NO OUTPUT CONTROL FOR STRESS PERIOD   34   TIME STEP   20
 
 SOLVING FOR HEAD 
                                                   Max.-Head-Change                         Max.-Flux-Residual
  Residual-Control   Outer-Iter.   Inner-Iter.     Column Row Layer    Maximum-Head-Change  Column Row Layer    Maximum-Flux-Residual          L2-NORM 
          0                 1           2             4    7     1       0.1380229475E-01       4    7    1         0.7249939245E+00      0.1658638630E+01
          0                 2           2             4    7     1      -0.1342589933E-02       4    7    1        -0.7249959173E-01      0.1652945757E+00
          0                 3           2             4    7     1      -0.3464992584E-01       5    8    1        -0.1861064068E+01      0.4578345715E+01
          0                 4           2             4    7     1       0.3615888065E-01       5    6    1         0.1995143304E+01      0.4887086539E+01
          0                 5           2             4    7     1      -0.1439145054E-02       5    8    1        -0.8162359310E-01      0.1999347733E+00
          0                 6           1             4    7     1       0.1775844389E-04       4    8    1         0.1035202664E-02      0.2535690310E-02

    ------------------------------------------------
       NWT REQUIRED            6 OUTER ITERATIONS 
       AND A TOTAL OF         11 INNER ITERATIONS.
    ------------------------------------------------

 NO OUTPUT CONTROL FOR STRESS PERIOD   34   TIME STEP   21
 
 SOLVING FOR HEAD 
                                                   Max.-Head-Change                         Max.-Flux-Residual
  Residual-Control   Outer-Iter.   Inner-Iter.     Column Row Layer    Maximum-Head-Change  Column Row Layer    Maximum-Flux-Residual          L2-NORM 
          0                 1           2             4    7     1       0.1365050040E-01       4    7    1         0.7171579023E+00      0.1631495117E+01
          0                 2           2             4    7     1      -0.1327824502E-02       4    7    1        -0.7171599104E-01      0.1625907207E+00
          0                 3           2             4    7     1      -0.3465264968E-01       5    8    1        -0.1861240874E+01      0.4578743897E+01
          0                 4           2             4    7     1       0.3616071044E-01       5    6    1         0.1995246988E+01      0.4887338403E+01
          0                 5           2             4    7     1      -0.1439217881E-02       5    8    1        -0.8162783053E-01      0.1999450799E+00
          0                 6           1             4    7     1       0.1775934237E-04       4    8    1         0.1035255923E-02      0.2535828737E-02

    ------------------------------------------------
       NWT REQUIRED            6 OUTER ITERATIONS 
       AND A TOTAL OF         11 INNER ITERATIONS.
    ------------------------------------------------

 NO OUTPUT CONTROL FOR STRESS PERIOD   34   TIME STEP   22
 
 SOLVING FOR HEAD 
                                                   Max.-Head-Change                         Max.-Flux-Residual
  Residual-Control   Outer-Iter.   Inner-Iter.     Column Row Layer    Maximum-Head-Change  Column Row Layer    Maximum-Flux-Residual          L2-NORM 
          0                 1           2             4    7     1       0.1349789114E-01       4    7    1         0.7092653984E+00      0.1605444817E+01
          0                 2           2             4    7     1      -0.1312979795E-02       4    7    1        -0.7092674162E-01      0.1599952429E+00
          0                 3           2             4    7     1      -0.3465533006E-01       5    8    1        -0.1861411216E+01      0.4579130819E+01
          0                 4           2             4    7     1       0.3616248959E-01       5    6    1         0.1995347590E+01      0.4887583011E+01
          0                 5           2             4    7     1      -0.1439288693E-02       5    8    1        -0.8163194212E-01      0.1999550747E+00
          0                 6           1             4    7     1       0.1776021620E-04       4    8    1         0.1035307648E-02      0.2535950607E-02

    ------------------------------------------------
       NWT REQUIRED            6 OUTER ITERATIONS 
       AND A TOTAL OF         11 INNER ITERATIONS.
    ------------------------------------------------

 NO OUTPUT CONTROL FOR STRESS PERIOD   34   TIME STEP   23
 
 SOLVING FOR HEAD 
                                                   Max.-Head-Change                         Max.-Flux-Residual
  Residual-Control   Outer-Iter.   Inner-Iter.     Column Row Layer    Maximum-Head-Change  Column Row Layer    Maximum-Flux-Residual          L2-NORM 
          0                 1           2             4    7     1       0.1334486297E-01       4    7    1         0.7013380129E+00      0.1580432736E+01
          0                 2           2             4    7     1      -0.1298094330E-02       4    7    1        -0.7013400348E-01      0.1575021791E+00
          0                 3           2             4    7     1      -0.3465795988E-01       5    8    1        -0.1861575038E+01      0.4579506182E+01
          0                 4           2             4    7     1       0.3616421334E-01       5    6    1         0.1995444879E+01      0.4887819766E+01
          0                 5           2             4    7     1      -0.1439357299E-02       5    8    1        -0.8163591801E-01      0.1999647698E+00
          0                 6           1             4    7     1       0.1776106293E-04       4    8    1         0.1035357708E-02      0.2536075423E-02

    ------------------------------------------------
       NWT REQUIRED            6 OUTER ITERATIONS 
       AND A TOTAL OF         11 INNER ITERATIONS.
    ------------------------------------------------

 NO OUTPUT CONTROL FOR STRESS PERIOD   34   TIME STEP   24
 
 SOLVING FOR HEAD 
                                                   Max.-Head-Change                         Max.-Flux-Residual
  Residual-Control   Outer-Iter.   Inner-Iter.     Column Row Layer    Maximum-Head-Change  Column Row Layer    Maximum-Flux-Residual          L2-NORM 
          0                 1           2             4    7     1       0.1319164958E-01       4    7    1         0.6933889062E+00      0.1556392338E+01
          0                 2           2             4    7     1      -0.1283190843E-02       4    7    1        -0.6933909278E-01      0.1551060434E+00
          0                 3           2             4    7     1      -0.3466054200E-01       5    8    1        -0.1861732804E+01      0.4579870641E+01
          0                 4           2             4    7     1       0.3616588621E-01       5    6    1         0.1995539125E+01      0.4888049289E+01
          0                 5           2             4    7     1      -0.1439423881E-02       5    8    1        -0.8163976926E-01      0.1999741603E+00
          0                 6           1             4    7     1       0.1776188446E-04       4    8    1         0.1035406268E-02      0.2536194030E-02

    ------------------------------------------------
       NWT REQUIRED            6 OUTER ITERATIONS 
       AND A TOTAL OF         11 INNER ITERATIONS.
    ------------------------------------------------

 NO OUTPUT CONTROL FOR STRESS PERIOD   34   TIME STEP   25
 
 SOLVING FOR HEAD 
                                                   Max.-Head-Change                         Max.-Flux-Residual
  Residual-Control   Outer-Iter.   Inner-Iter.     Column Row Layer    Maximum-Head-Change  Column Row Layer    Maximum-Flux-Residual          L2-NORM 
          0                 1           2             4    7     1       0.1303845598E-01       4    7    1         0.6854301954E+00      0.1533267259E+01
          0                 2           2             4    7     1      -0.1268289274E-02       4    7    1        -0.6854322128E-01      0.1527999791E+00
          0                 3           2             4    7     1      -0.3466307948E-01       5    8    1        -0.1861884960E+01      0.4580224976E+01
          0                 4           2             4    7     1       0.3616751275E-01       5    6    1         0.1995630589E+01      0.4888271407E+01
          0                 5           2             4    7     1      -0.1439488619E-02       5    8    1        -0.8164350687E-01      0.1999822748E+00
          0                 6           1             4    7     1       0.1776268324E-04       4    8    1         0.1035453432E-02      0.2536281062E-02

    ------------------------------------------------
       NWT REQUIRED            6 OUTER ITERATIONS 
       AND A TOTAL OF         11 INNER ITERATIONS.
    ------------------------------------------------

 NO OUTPUT CONTROL FOR STRESS PERIOD   34   TIME STEP   26
 
 SOLVING FOR HEAD 
                                                   Max.-Head-Change                         Max.-Flux-Residual
  Residual-Control   Outer-Iter.   Inner-Iter.     Column Row Layer    Maximum-Head-Change  Column Row Layer    Maximum-Flux-Residual          L2-NORM 
          0                 1           2             4    7     1       0.1288534377E-01       4    7    1         0.6774651362E+00      0.1511003496E+01
          0                 2           2             4    7     1      -0.1253395617E-02       4    7    1        -0.6774671453E-01      0.1505793213E+00
          0                 3           2             4    7     1      -0.3466557413E-01       5    8    1        -0.1862031821E+01      0.4580569528E+01
          0                 4           2             4    7     1       0.3616909525E-01       5    6    1         0.1995719412E+01      0.4888487975E+01
          0                 5           2             4    7     1      -0.1439551603E-02       5    8    1        -0.8164713668E-01      0.1999911286E+00
          0                 6           1             4    7     1       0.1776346063E-04       4    8    1         0.1035499280E-02      0.2536393967E-02

    ------------------------------------------------
       NWT REQUIRED            6 OUTER ITERATIONS 
       AND A TOTAL OF         11 INNER ITERATIONS.
    ------------------------------------------------

 NO OUTPUT CONTROL FOR STRESS PERIOD   34   TIME STEP   27
 
 SOLVING FOR HEAD 
                                                   Max.-Head-Change                         Max.-Flux-Residual
  Residual-Control   Outer-Iter.   Inner-Iter.     Column Row Layer    Maximum-Head-Change  Column Row Layer    Maximum-Flux-Residual          L2-NORM 
          0                 1           2             4    7     1       0.1273263394E-01       4    7    1         0.6695116691E+00      0.1489553685E+01
          0                 2           2             4    7     1      -0.1238541096E-02       4    7    1        -0.6695136668E-01      0.1484394572E+00
          0                 3           2             4    7     1      -0.3466801935E-01       5    8    1        -0.1862173278E+01      0.4580903993E+01
          0                 4           2             4    7     1       0.3617062896E-01       5    6    1         0.1995805360E+01      0.4888697773E+01
          0                 5           2             4    7     1      -0.1439612646E-02       5    8    1        -0.8165064860E-01      0.1999997088E+00
          0                 6           1             4    7     1       0.1776421371E-04       4    8    1         0.1035543683E-02      0.2536504177E-02

    ------------------------------------------------
       NWT REQUIRED            6 OUTER ITERATIONS 
       AND A TOTAL OF         11 INNER ITERATIONS.
    ------------------------------------------------

 NO OUTPUT CONTROL FOR STRESS PERIOD   34   TIME STEP   28
 
 SOLVING FOR HEAD 
                                                   Max.-Head-Change                         Max.-Flux-Residual
  Residual-Control   Outer-Iter.   Inner-Iter.     Column Row Layer    Maximum-Head-Change  Column Row Layer    Maximum-Flux-Residual          L2-NORM 
          0                 1           2             4    7     1       0.1258035292E-01       4    7    1         0.6615716904E+00      0.1468874943E+01
          0                 2           2             4    7     1      -0.1223728283E-02       4    7    1        -0.6615736736E-01      0.1463755980E+00
          0                 3           2             4    7     1      -0.3467042385E-01       5    8    1        -0.1862310031E+01      0.4581229617E+01
          0                 4           2             4    7     1       0.3617212312E-01       5    6    1         0.1995888945E+01      0.4888901132E+01
          0                 5           2             4    7     1      -0.1439672117E-02       5    8    1        -0.8165406410E-01      0.2000070494E+00
          0                 6           1             4    7     1       0.1776494719E-04       4    8    1         0.1035586891E-02      0.2536579543E-02

    ------------------------------------------------
       NWT REQUIRED            6 OUTER ITERATIONS 
       AND A TOTAL OF         11 INNER ITERATIONS.
    ------------------------------------------------

 NO OUTPUT CONTROL FOR STRESS PERIOD   34   TIME STEP   29
 
 SOLVING FOR HEAD 
                                                   Max.-Head-Change                         Max.-Flux-Residual
  Residual-Control   Outer-Iter.   Inner-Iter.     Column Row Layer    Maximum-Head-Change  Column Row Layer    Maximum-Flux-Residual          L2-NORM 
          0                 1           2             4    7     1       0.1242892335E-01       4    7    1         0.6536686912E+00      0.1448915809E+01
          0                 2           2             4    7     1      -0.1208998288E-02       4    7    1        -0.6536706575E-01      0.1443839201E+00
          0                 3           2             4    7     1      -0.3467278477E-01       5    8    1        -0.1862442240E+01      0.4581546523E+01
          0                 4           2             4    7     1       0.3617357756E-01       5    6    1         0.1995970188E+01      0.4889099108E+01
          0                 5           2             4    7     1      -0.1439730005E-02       5    8    1        -0.8165738371E-01      0.2000144089E+00
          0                 6           1             4    7     1       0.1776566174E-04       5    8    1         0.1035614655E-02      0.2536661441E-02

    ------------------------------------------------
       NWT REQUIRED            6 OUTER ITERATIONS 
       AND A TOTAL OF         11 INNER ITERATIONS.
    ------------------------------------------------

 NO OUTPUT CONTROL FOR STRESS PERIOD   34   TIME STEP   30



 STREAM LISTING     PERIOD     34   STEP       30

 LAYER ROW COL. STREAM  RCH.  FLOW INTO     FLOW TO   FLOW OUT OF   OVRLND.     DIRECT     STREAM       STREAM     STREAM     STREAM   STREAMBED  STREAMBED
                SEG.NO.  NO.  STRM. RCH.    AQUIFER    STRM. RCH.    RUNOFF     PRECIP       ET          HEAD       DEPTH      WIDTH   CONDCTNC.   GRADIENT

   1    1    1     1     1    3.5249E+01  2.8720E-01   3.4962E+01  0.000E+00  0.000E+00  0.000E+00  1.09434E+03  1.294E+00  1.486E+01  6.688E-02  1.431E+00
   1    2    2     1     2    3.4962E+01  4.4466E-01   3.4517E+01  0.000E+00  0.000E+00  0.000E+00  1.08935E+03  1.291E+00  1.480E+01  1.036E-01  1.430E+00
   1    3    3     1     3    3.4517E+01  3.7911E-01   3.4138E+01  0.000E+00  0.000E+00  0.000E+00  1.08371E+03  1.288E+00  1.474E+01  8.841E-02  1.429E+00
   1    3    4     1     4    3.4138E+01  3.4901E-01   3.3789E+01  0.000E+00  0.000E+00  0.000E+00  1.07869E+03  1.285E+00  1.468E+01  8.145E-02  1.428E+00
   1    4    5     2     1    3.1789E+01  3.4244E-01   3.1446E+01  0.000E+00  0.000E+00  0.000E+00  1.07332E+03  1.390E+00  1.200E+01  7.800E-02  1.463E+00
   1    5    6     2     2    3.1446E+01  2.6294E-01   3.1184E+01  0.000E+00  0.000E+00  0.000E+00  1.06789E+03  1.382E+00  1.200E+01  6.000E-02  1.461E+00
   1    6    6     2     3    3.1184E+01  2.6252E-01   3.0921E+01  0.000E+00  0.000E+00  0.000E+00  1.06317E+03  1.375E+00  1.200E+01  6.000E-02  1.458E+00
   1    7    6     2     4    3.0921E+01  2.6210E-01   3.0659E+01  0.000E+00  0.000E+00  0.000E+00  1.05844E+03  1.368E+00  1.200E+01  6.000E-02  1.456E+00
   1    8    6     2     5    3.0659E+01  2.6168E-01   3.0397E+01  0.000E+00  0.000E+00  0.000E+00  1.05372E+03  1.361E+00  1.200E+01  6.000E-02  1.454E+00
   1    3    5     3     1    2.0000E+00  2.8252E-01   1.7175E+00  0.000E+00  0.000E+00  0.000E+00  1.07555E+03  1.909E+00  9.636E+00  7.227E-02  1.955E+00
   1    3    6     3     2    1.7175E+00  2.4905E-01   1.4684E+00  0.000E+00  0.000E+00  0.000E+00  1.07264E+03  1.727E+00  8.909E+00  6.682E-02  1.864E+00
   1    3    7     3     3    1.4684E+00  1.9718E-01   1.2712E+00  0.000E+00  0.000E+00  0.000E+00  1.06987E+03  1.555E+00  8.218E+00  5.547E-02  1.777E+00
   1    4    8     3     4    1.2712E+00  2.2567E-01   1.0456E+00  0.000E+00  0.000E+00  0.000E+00  1.06682E+03  1.364E+00  7.455E+00  6.709E-02  1.682E+00
   1    5    8     3     5    1.0456E+00  1.5790E-01   8.8768E-01  0.000E+00  0.000E+00  0.000E+00  1.06362E+03  1.164E+00  6.655E+00  4.991E-02  1.582E+00
   1    6    8     3     6    8.8768E-01  5.5980E-02   8.3170E-01  0.000E+00  0.000E+00  0.000E+00  1.06158E+03  1.036E+00  6.145E+00  1.844E-02  1.518E+00
   1    5   10     4     1    1.0000E+01  9.0919E-02   9.9091E+00  0.000E+00  0.000E+00  0.000E+00  1.07836E+03  6.368E-01  1.000E+01  2.500E-02  1.212E+00
   1    5    9     4     2    9.9091E+00  1.8158E-01   9.7275E+00  0.000E+00  0.000E+00  0.000E+00  1.07154E+03  6.315E-01  1.000E+01  5.000E-02  1.211E+00
   1    6    8     4     3    9.7275E+00  1.2689E-01   9.6006E+00  0.000E+00  0.000E+00  0.000E+00  1.06381E+03  6.256E-01  1.000E+01  3.500E-02  1.209E+00
   1    6    8     5     1    1.0432E+01  2.2686E-01   1.0205E+01  0.000E+00  0.000E+00  0.000E+00  1.05868E+03  6.790E-01  1.542E+01  6.166E-02  1.226E+00
   1    7    7     5     2    1.0205E+01  2.7894E-01   9.9265E+00  0.000E+00  0.000E+00  0.000E+00  1.05417E+03  6.732E-01  1.519E+01  7.594E-02  1.224E+00
   1    8    7     5     3    9.9265E+00  1.9221E-01   9.7343E+00  0.000E+00  0.000E+00  0.000E+00  1.04992E+03  6.676E-01  1.497E+01  5.241E-02  1.223E+00
   1    8    6     5     4    9.7343E+00  1.3577E-01   9.5985E+00  0.000E+00  0.000E+00  0.000E+00  1.04691E+03  6.637E-01  1.482E+01  3.706E-02  1.221E+00
   1    9    6     6     1    2.8802E+01  2.5954E-01   2.8543E+01  0.000E+00  0.000E+00  0.000E+00  1.04405E+03  1.326E+00  1.200E+01  6.000E-02  1.442E+00
   1   10    7     6     2    2.8543E+01  2.5911E-01   2.8284E+01  0.000E+00  0.000E+00  0.000E+00  1.03950E+03  1.319E+00  1.200E+01  6.000E-02  1.440E+00
   1   11    7     6     3    2.8284E+01  2.5868E-01   2.8025E+01  0.000E+00  0.000E+00  0.000E+00  1.03495E+03  1.311E+00  1.200E+01  6.000E-02  1.437E+00
   1   12    7     6     4    2.8025E+01  2.5824E-01   2.7767E+01  0.000E+00  0.000E+00  0.000E+00  1.03040E+03  1.304E+00  1.200E+01  6.000E-02  1.435E+00
   1   13    7     6     5    2.7767E+01  5.5135E-03   2.7761E+01  0.000E+00  0.000E+00  0.000E+00  1.02721E+03  1.300E+00  1.200E+01  2.400E-02  7.658E-02
   1   14    9     7     1    1.5000E+02  1.3421E+00   1.4866E+02  0.000E+00  0.000E+00  0.000E+00  1.03987E+03  2.288E+00  5.529E+01  5.593E-01  7.999E-01
   1   13    8     7     2    1.4866E+02  1.8607E+00   1.4680E+02  0.000E+00  0.000E+00  0.000E+00  1.03478E+03  2.279E+00  5.526E+01  6.148E-01  1.009E+00
   1   13    7     7     3    1.4680E+02  1.5133E+00   1.4528E+02  0.000E+00  0.000E+00  0.000E+00  1.02969E+03  2.270E+00  5.522E+01  5.584E-01  9.033E-01
   1   13    6     8     1    1.7305E+02  9.7063E-01   1.7207E+02  0.000E+00  0.000E+00  0.000E+00  1.02484E+03  2.969E+00  4.305E+01  4.387E-01  7.376E-01
   1   13    5     8     2    1.7207E+02  2.1195E-01   1.7186E+02  0.000E+00  0.000E+00  0.000E+00  1.01859E+03  2.965E+00  4.299E+01  4.381E-01  1.613E-01
   1   13    4     8     3    1.7186E+02 -2.3264E+00   1.7419E+02  0.000E+00  0.000E+00  0.000E+00  1.01235E+03  2.972E+00  4.309E+01  4.391E+00 -1.766E-01
   1   13    3     8     4    1.7419E+02 -3.5741E+00   1.7776E+02  0.000E+00  0.000E+00  0.000E+00  1.00612E+03  2.991E+00  4.337E+01  4.419E+00 -2.696E-01
   1   13    2     8     5    1.7776E+02 -2.5207E+00   1.8028E+02  0.000E+00  0.000E+00  0.000E+00  9.99885E+02  3.010E+00  4.365E+01  4.448E+00 -1.889E-01
   1   13    1     8     6    1.8028E+02 -1.9291E+00   1.8221E+02  0.000E+00  0.000E+00  0.000E+00  9.94899E+02  3.024E+00  4.385E+01  2.681E+00 -2.399E-01
   1    8    6     9     1    1.1193E+01  0.0000E+00   1.1193E+01  0.000E+00  0.000E+00  0.000E+00  1.08117E+03  2.425E+00  4.000E+00  0.000E+00  1.808E+00
   1    8    5     9     2    1.1193E+01  0.0000E+00   1.1193E+01  0.000E+00  0.000E+00  0.000E+00  1.08067E+03  2.425E+00  4.000E+00  0.000E+00  1.808E+00





UNSATURATED ZONE PACKAGE VOLUMETRIC BUDGET FOR  TIME STEP    30 STRESS PERIOD   34
  ------------------------------------------------------------------------------



     CUMULATIVE VOLUMES      L**3       RATES FOR THIS TIME STEP      L**3/T
     ------------------                 ------------------------

           IN:                                      IN:
           ---                                      ---
        INFILTRATION =  1416848993.7801          INFILTRATION =          12.0412

          OUT:                                     OUT:
          ----                                     ----
              UZF ET =  1277032142.3438                UZF ET =          12.0675
        UZF RECHARGE =       73224.0000          UZF RECHARGE =       0.0000E+00

            IN - OUT =   139743627.4362              IN - OUT =      -2.6286E-02

          STORAGE:                                 STORAGE:
          --------                                 --------
      STORAGE CHANGE =   139744984.0910        STORAGE CHANGE =      -2.6286E-02

 PERCENT DISCREPANCY IS DIFFERENCE BETWEEN IN-OUT MINUS CHANGE IN STORAGE
 DIVIDED BY THE AVERAGE OF IN AND OUT TIMES 100

 PERCENT DISCREPANCY =          -0.00     PERCENT DISCREPANCY =           0.00






1
  VOLUMETRIC BUDGET FOR AGRICULTURAL FIELDS AT  END OF TIME STEP   30, STRESS PERIOD  34
  ------------------------------------------------------------------------------

     CUMULATIVE VOLUMES      L**3       RATES FOR THIS TIME STEP      L**3/T
     ------------------                 ------------------------

           IN:                                      IN:
           ---                                      ---
               AG WELLS  =   381194528.0000                 AG WELLS  =           0.0000
      DIVERSION SEGMENTS =   962083840.0000        DIVERSION SEGMENTS =          11.1935
       IRRIGATION PONDS  =           0.0000         IRRIGATION PONDS  =           0.0000
           GW IRRIGATION =           0.0000             GW IRRIGATION =           0.0000
           SW IRRIGATION =           0.0000             SW IRRIGATION =           0.0000
        SYSTEM LOSSES GW =           0.0000          SYSTEM LOSSES GW =           0.0000
        SYSTEM LOSSES SW =           0.0000          SYSTEM LOSSES SW =           0.0000

                TOTAL IN =  1343278336.0000                  TOTAL IN =          11.1935

          OUT:                                     OUT:
          ----                                     ----
               AG WELLS  =           0.0000                 AG WELLS  =           0.0000
      DIVERSION SEGMENTS =           0.0000        DIVERSION SEGMENTS =           0.0000
       IRRIGATION PONDS  =           0.0000         IRRIGATION PONDS  =           0.0000
           GW IRRIGATION =   381194528.0000             GW IRRIGATION =           0.0000
           SW IRRIGATION =   962103744.0000             SW IRRIGATION =          11.1937
        SYSTEM LOSSES GW =           0.0000          SYSTEM LOSSES GW =           0.0000
        SYSTEM LOSSES SW =           0.0000          SYSTEM LOSSES SW =           0.0000

               TOTAL OUT =  1343298304.0000                 TOTAL OUT =          11.1937

                IN - OUT =      -19968.0000                  IN - OUT =      -2.2316E-04

     PERCENT DISCREPANCY =          -0.00         PERCENT DISCREPANCY =          -0.00



1
  VOLUMETRIC BUDGET FOR ENTIRE MODEL AT END OF TIME STEP   30, STRESS PERIOD  34
  ------------------------------------------------------------------------------

     CUMULATIVE VOLUMES      L**3       RATES FOR THIS TIME STEP      L**3/T
     ------------------                 ------------------------

           IN:                                      IN:
           ---                                      ---
             STORAGE     =   648575232.0000               STORAGE     =           2.2002
       CONSTANT HEAD     =           0.0000         CONSTANT HEAD     =           0.0000
     HEAD DEP BOUNDS     =    24831668.0000       HEAD DEP BOUNDS     =           0.2862
      STREAM LEAKAGE     =  1041237056.0000        STREAM LEAKAGE     =          12.1929
        UZF RECHARGE     =       73223.9531          UZF RECHARGE     =           0.0000
               GW ET     =           0.0000                 GW ET     =           0.0000
     SURFACE LEAKAGE     =           0.0000       SURFACE LEAKAGE     =           0.0000
           AG WELLS      =           0.0000             AG WELLS      =           0.0000

                TOTAL IN =  1714717184.0000                  TOTAL IN =          14.6792

          OUT:                                     OUT:
          ----                                     ----
             STORAGE     =   369402016.0000               STORAGE     =           4.0393
       CONSTANT HEAD     =           0.0000         CONSTANT HEAD     =           0.0000
     HEAD DEP BOUNDS     =    25257592.0000       HEAD DEP BOUNDS     =           0.2895
      STREAM LEAKAGE     =   935884608.0000        STREAM LEAKAGE     =          10.3503
        UZF RECHARGE     =           0.0000          UZF RECHARGE     =           0.0000
               GW ET     =     2982784.2500                 GW ET     =           0.0000
     SURFACE LEAKAGE     =           0.0000       SURFACE LEAKAGE     =           0.0000
           AG WELLS      =   381194528.0000             AG WELLS      =           0.0000

               TOTAL OUT =  1714721536.0000                 TOTAL OUT =          14.6791

                IN - OUT =       -4352.0000                  IN - OUT =       9.6321E-05

     PERCENT DISCREPANCY =          -0.00         PERCENT DISCREPANCY =           0.00






         TIME SUMMARY AT END OF TIME STEP   30 IN STRESS PERIOD   34
                    SECONDS     MINUTES      HOURS       DAYS        YEARS
                    -----------------------------------------------------------
   TIME STEP LENGTH  87667.      1461.1      24.352      1.0147     2.77799E-03
 STRESS PERIOD TIME 2.63000E+06  43833.      730.56      30.440     8.33397E-02
         TOTAL TIME 8.68762E+07 1.44794E+06  24132.      1005.5      2.7529    
1
1
                            STRESS PERIOD NO.   35, LENGTH =   2630000.    
                            -----------------------------------------------

                              NUMBER OF TIME STEPS =    30

                               MULTIPLIER FOR DELT =     1.000

                            INITIAL TIME STEP SIZE =   87666.66    

 REUSING NON-PARAMETER GHB CELLS FROM LAST STRESS PERIOD

      2 GHB CELLS

 REUSING STREAM SEGMENT DATA FROM LAST STRESS PERIOD



            AREAL INFILTRATION RATE
 READING ON UNIT   19 WITH FORMAT: (FREE)              

            1           2           3           4           5           6           7           8           9          10
 ........................................................................................................................
   1   1.0000E-10  2.0000E-10   0.000       0.000       0.000       0.000       0.000       0.000       0.000       0.000    
   2   2.0000E-10  1.0000E-10  2.0000E-10   0.000       0.000      8.0000E-10  8.0000E-10  5.0000E-10   0.000       0.000    
   3    0.000      5.0000E-10  1.0000E-10  1.0000E-10  8.0000E-10  8.0000E-10  5.0000E-10  5.0000E-10   0.000       0.000    
   4   8.0000E-10  5.0000E-10  1.0000E-10  1.0000E-10  1.0000E-10  1.0000E-10  1.0000E-10  1.0000E-10  2.0000E-10   0.000    
   5   8.0000E-10  5.0000E-10  1.0000E-10  1.0000E-10  1.0000E-10  1.0000E-10  1.0000E-10  1.0000E-10  1.0000E-10  1.0000E-10
   6   8.0000E-10  5.0000E-10  5.0000E-10  2.0000E-10  2.0000E-10  1.0000E-10  1.0000E-10  1.0000E-10  1.0000E-10  5.0000E-10
   7   8.0000E-10  5.0000E-10  5.0000E-10  2.0000E-10  2.0000E-10  1.0000E-10  1.0000E-10  2.0000E-10  2.0000E-10   0.000    
   8    0.000      5.0000E-10  5.0000E-10  2.0000E-10  2.0000E-10  1.0000E-10  1.0000E-10  2.0000E-10  5.0000E-10   0.000    
   9    0.000      5.0000E-10  5.0000E-10  2.0000E-10  2.0000E-10  1.0000E-10  1.0000E-10  2.0000E-10  5.0000E-10   0.000    
  10    0.000      5.0000E-10  5.0000E-10  2.0000E-10  2.0000E-10  1.0000E-10  1.0000E-10  2.0000E-10  5.0000E-10  8.0000E-10
  11    0.000      1.0000E-10  1.0000E-10  1.0000E-10  1.0000E-10  1.0000E-10  1.0000E-10  2.0000E-10  5.0000E-10   0.000    
  12   1.0000E-10  1.0000E-10  1.0000E-10  1.0000E-10  1.0000E-10  1.0000E-10  1.0000E-10  1.0000E-10  2.0000E-10   0.000    
  13   1.0000E-10  1.0000E-10  2.0000E-10  2.0000E-10  2.0000E-10  2.0000E-10  2.0000E-10  1.0000E-10  1.0000E-10   0.000    
  14    0.000      2.0000E-10  5.0000E-10  5.0000E-10  5.0000E-10  5.0000E-10  5.0000E-10  2.0000E-10  1.0000E-10   0.000    
  15    0.000       0.000      8.0000E-10  8.0000E-10  8.0000E-10  8.0000E-10   0.000       0.000       0.000       0.000    

                  ET RATE =  5.000000E-09

 USING ET EXTINCTION DEPTH FROM PREVIOUS STRESS PERIOD. CURRENT PERIOD IS:      35

 USING EXTINCTION WATER CONTENT FROM PREVIOUS STRESS PERIOD. CURRENT PERIOD IS:      35

 USING AIR ENTRY PRESSURE FROM PREVIOUS STRESS PERIOD. CURRENT PERIOD IS:      35

 USING ROOT PRESSURE HEAD FROM PREVIOUS STRESS PERIOD. CURRENT PERIOD IS:      35

 USING ROOT ACTIVITY FROM PREVIOUS STRESS PERIOD. CURRENT PERIOD IS:      35

 PROCESSING AG STRESS PERIOD DATA

 READING AG STRESS PERIOD DATA

 READING IRRIGATION SEGMENT

 READING IRRIGATION WELL

 READING SUPPLEMENTAL WELL

 NO IRRPOND OR REUSING IRRPOND DATA FROM LAST STRESS PERIOD

 END PROCESSING AG STRESS PERIOD DATA OPTIONS
 
 SOLVING FOR HEAD 
                                                   Max.-Head-Change                         Max.-Flux-Residual
  Residual-Control   Outer-Iter.   Inner-Iter.     Column Row Layer    Maximum-Head-Change  Column Row Layer    Maximum-Flux-Residual          L2-NORM 
          0                 1           2             4    7     1       0.1227820286E-01       4    7    1         0.6457950905E+00      0.1419495499E+01
          0                 2           2             4    7     1      -0.1194337066E-02       4    7    1        -0.6457969311E-01      0.1415006958E+00
          0                 3           1             4    7     1       0.8132990040E-04       4    7    1         0.4520578731E-02      0.9863972121E-02

    ------------------------------------------------
       NWT REQUIRED            3 OUTER ITERATIONS 
       AND A TOTAL OF          5 INNER ITERATIONS.
    ------------------------------------------------

 NO OUTPUT CONTROL FOR STRESS PERIOD   35   TIME STEP    1
 
 SOLVING FOR HEAD 
                                                   Max.-Head-Change                         Max.-Flux-Residual
  Residual-Control   Outer-Iter.   Inner-Iter.     Column Row Layer    Maximum-Head-Change  Column Row Layer    Maximum-Flux-Residual          L2-NORM 
          0                 1           2             4    7     1       0.1212835866E-01       4    7    1         0.6379628992E+00      0.1347878398E+01
          0                 2           2             4    7     1      -0.1179761279E-02       4    7    1        -0.6379647190E-01      0.1346431369E+00
          0                 3           2             4    7     1      -0.2058033448E-02       5    8    1        -0.1118700333E+00      0.2738151180E+00
          0                 4           2             4    7     1       0.2222565214E-02       5    8    1         0.1227283498E+00      0.3005283359E+00
          0                 5           1             4    7     1      -0.8846070390E-04       5    8    1        -0.5020896808E-02      0.1229477227E-01

    ------------------------------------------------
       NWT REQUIRED            5 OUTER ITERATIONS 
       AND A TOTAL OF          9 INNER ITERATIONS.
    ------------------------------------------------

 NO OUTPUT CONTROL FOR STRESS PERIOD   35   TIME STEP    2
 
 SOLVING FOR HEAD 
                                                   Max.-Head-Change                         Max.-Flux-Residual
  Residual-Control   Outer-Iter.   Inner-Iter.     Column Row Layer    Maximum-Head-Change  Column Row Layer    Maximum-Flux-Residual          L2-NORM 
          0                 1           2             4    7     1       0.1197945670E-01       4    7    1         0.6301745646E+00      0.1311215066E+01
          0                 2           2             4    7     1      -0.1165277303E-02       4    7    1        -0.6301764472E-01      0.1310979539E+00
          0                 3           2             4    7     1      -0.2073859221E-02       5    8    1        -0.1127193444E+00      0.2759899798E+00
          0                 4           2             4    7     1       0.2238052256E-02       5    8    1         0.1235828688E+00      0.3026220313E+00
          0                 5           1             4    7     1      -0.8907534248E-04       5    8    1        -0.5055755777E-02      0.1238017898E-01

    ------------------------------------------------
       NWT REQUIRED            5 OUTER ITERATIONS 
       AND A TOTAL OF          9 INNER ITERATIONS.
    ------------------------------------------------

 NO OUTPUT CONTROL FOR STRESS PERIOD   35   TIME STEP    3
 
 SOLVING FOR HEAD 
                                                   Max.-Head-Change                         Max.-Flux-Residual
  Residual-Control   Outer-Iter.   Inner-Iter.     Column Row Layer    Maximum-Head-Change  Column Row Layer    Maximum-Flux-Residual          L2-NORM 
          0                 1           2             4    7     1       0.1183182575E-01       4    7    1         0.6224467661E+00      0.1293241601E+01
          0                 2           2             4    7     1      -0.1150916835E-02       4    7    1        -0.6224486433E-01      0.1293027205E+00
          0                 3           2             4    7     1      -0.2086145954E-02       5    8    1        -0.1133776204E+00      0.2776147350E+00
          0                 4           2             4    7     1       0.2249863768E-02       5    8    1         0.1242345155E+00      0.3042185097E+00
          0                 5           1             4    7     1      -0.8954754744E-04       5    8    1        -0.5082533820E-02      0.1244577914E-01

    ------------------------------------------------
       NWT REQUIRED            5 OUTER ITERATIONS 
       AND A TOTAL OF          9 INNER ITERATIONS.
    ------------------------------------------------

 NO OUTPUT CONTROL FOR STRESS PERIOD   35   TIME STEP    4
 
 SOLVING FOR HEAD 
                                                   Max.-Head-Change                         Max.-Flux-Residual
  Residual-Control   Outer-Iter.   Inner-Iter.     Column Row Layer    Maximum-Head-Change  Column Row Layer    Maximum-Flux-Residual          L2-NORM 
          0                 1           2             4    7     1       0.1168527214E-01       4    7    1         0.6147701193E+00      0.1275799270E+01
          0                 2           2             4    7     1      -0.1136660933E-02       4    7    1        -0.6147718674E-01      0.1275604682E+00
          0                 3           2             4    7     1      -0.2096035134E-02       5    8    1        -0.1139056273E+00      0.2789200978E+00
          0                 4           2             4    7     1       0.2259186180E-02       5    8    1         0.1247487157E+00      0.3054783974E+00
          0                 5           1             4    7     1      -0.8991788230E-04       5    8    1        -0.5103529962E-02      0.1249721894E-01

    ------------------------------------------------
       NWT REQUIRED            5 OUTER ITERATIONS 
       AND A TOTAL OF          9 INNER ITERATIONS.
    ------------------------------------------------

 NO OUTPUT CONTROL FOR STRESS PERIOD   35   TIME STEP    5
 
 SOLVING FOR HEAD 
                                                   Max.-Head-Change                         Max.-Flux-Residual
  Residual-Control   Outer-Iter.   Inner-Iter.     Column Row Layer    Maximum-Head-Change  Column Row Layer    Maximum-Flux-Residual          L2-NORM 
          0                 1           2             4    7     1       0.1154001584E-01       4    7    1         0.6071567038E+00      0.1258873582E+01
          0                 2           2             4    7     1      -0.1122531644E-02       4    7    1        -0.6071585478E-01      0.1258695467E+00
          0                 3           2             4    7     1      -0.2104215706E-02       5    8    1        -0.1143404291E+00      0.2799974758E+00
          0                 4           2             4    7     1       0.2266739839E-02       5    8    1         0.1251652204E+00      0.3064990905E+00
          0                 5           1             4    7     1      -0.9022132360E-04       5    8    1        -0.5120728081E-02      0.1253938037E-01

    ------------------------------------------------
       NWT REQUIRED            5 OUTER ITERATIONS 
       AND A TOTAL OF          9 INNER ITERATIONS.
    ------------------------------------------------

 NO OUTPUT CONTROL FOR STRESS PERIOD   35   TIME STEP    6
 
 SOLVING FOR HEAD 
                                                   Max.-Head-Change                         Max.-Flux-Residual
  Residual-Control   Outer-Iter.   Inner-Iter.     Column Row Layer    Maximum-Head-Change  Column Row Layer    Maximum-Flux-Residual          L2-NORM 
          0                 1           2             4    7     1       0.1139614108E-01       4    7    1         0.5996105529E+00      0.1242456184E+01
          0                 2           2             4    7     1      -0.1108536616E-02       4    7    1        -0.5996124252E-01      0.1242292107E+00
          0                 3           2             4    7     1      -0.2111135208E-02       5    8    1        -0.1147062992E+00      0.2809062940E+00
          0                 4           2             4    7     1       0.2272989140E-02       5    8    1         0.1255096701E+00      0.3073433492E+00
          0                 5           1             4    7     1      -0.9046549412E-04       5    8    1        -0.5134561214E-02      0.1257328105E-01

    ------------------------------------------------
       NWT REQUIRED            5 OUTER ITERATIONS 
       AND A TOTAL OF          9 INNER ITERATIONS.
    ------------------------------------------------

 NO OUTPUT CONTROL FOR STRESS PERIOD   35   TIME STEP    7
 
 SOLVING FOR HEAD 
                                                   Max.-Head-Change                         Max.-Flux-Residual
  Residual-Control   Outer-Iter.   Inner-Iter.     Column Row Layer    Maximum-Head-Change  Column Row Layer    Maximum-Flux-Residual          L2-NORM 
          0                 1           2             4    7     1       0.1125370997E-01       4    7    1         0.5921360302E+00      0.1226502670E+01
          0                 2           2             4    7     1      -0.1094681578E-02       4    7    1        -0.5921376962E-01      0.1226351976E+00
          0                 3           2             4    7     1      -0.2117093939E-02       5    8    1        -0.1150193648E+00      0.2816862168E+00
          0                 4           2             4    7     1       0.2278248012E-02       5    8    1         0.1257993864E+00      0.3080536243E+00
          0                 5           1             4    7     1      -0.9067514964E-04       5    8    1        -0.5146433365E-02      0.1260237524E-01

    ------------------------------------------------
       NWT REQUIRED            5 OUTER ITERATIONS 
       AND A TOTAL OF          9 INNER ITERATIONS.
    ------------------------------------------------

 NO OUTPUT CONTROL FOR STRESS PERIOD   35   TIME STEP    8
 
 SOLVING FOR HEAD 
                                                   Max.-Head-Change                         Max.-Flux-Residual
  Residual-Control   Outer-Iter.   Inner-Iter.     Column Row Layer    Maximum-Head-Change  Column Row Layer    Maximum-Flux-Residual          L2-NORM 
          0                 1           2             4    7     1       0.1111264738E-01       4    7    1         0.5847289840E+00      0.1211000277E+01
          0                 2           2             4    7     1      -0.1080960220E-02       4    7    1        -0.5847307435E-01      0.1210860337E+00
          0                 3           2             4    7     1      -0.2122299421E-02       5    8    1        -0.1152908911E+00      0.2823646455E+00
          0                 4           2             4    7     1       0.2282732470E-02       5    8    1         0.1260462968E+00      0.3086591062E+00
          0                 5           1             4    7     1      -0.9085415861E-04       5    8    1        -0.5156564244E-02      0.1262722481E-01

    ------------------------------------------------
       NWT REQUIRED            5 OUTER ITERATIONS 
       AND A TOTAL OF          9 INNER ITERATIONS.
    ------------------------------------------------

 NO OUTPUT CONTROL FOR STRESS PERIOD   35   TIME STEP    9
 
 SOLVING FOR HEAD 
                                                   Max.-Head-Change                         Max.-Flux-Residual
  Residual-Control   Outer-Iter.   Inner-Iter.     Column Row Layer    Maximum-Head-Change  Column Row Layer    Maximum-Flux-Residual          L2-NORM 
          0                 1           2             4    7     1       0.1097327398E-01       4    7    1         0.5774076451E+00      0.1195919086E+01
          0                 2           2             4    7     1      -0.1067402737E-02       4    7    1        -0.5774092641E-01      0.1195790846E+00
          0                 3           2             4    7     1      -0.2126903647E-02       5    8    1        -0.1155292401E+00      0.2829622404E+00
          0                 4           2             4    7     1       0.2286601630E-02       5    8    1         0.1262591946E+00      0.3091813351E+00
          0                 5           1             4    7     1      -0.9101410825E-04       5    8    1        -0.5165611647E-02      0.1264942231E-01

    ------------------------------------------------
       NWT REQUIRED            5 OUTER ITERATIONS 
       AND A TOTAL OF          9 INNER ITERATIONS.
    ------------------------------------------------

 NO OUTPUT CONTROL FOR STRESS PERIOD   35   TIME STEP   10
 
 SOLVING FOR HEAD 
                                                   Max.-Head-Change                         Max.-Flux-Residual
  Residual-Control   Outer-Iter.   Inner-Iter.     Column Row Layer    Maximum-Head-Change  Column Row Layer    Maximum-Flux-Residual          L2-NORM 
          0                 1           2             4    7     1       0.1083536247E-01       4    7    1         0.5701591390E+00      0.1181250417E+01
          0                 2           2             4    7     1      -0.1053987643E-02       4    7    1        -0.5701607174E-01      0.1181131306E+00
          0                 3           2             4    7     1      -0.2131018823E-02       5    8    1        -0.1157404357E+00      0.2834936508E+00
          0                 4           2             4    7     1       0.2289971250E-02       5    8    1         0.1264444671E+00      0.3096359475E+00
          0                 5           1             4    7     1      -0.9114489246E-04       5    8    1        -0.5173002367E-02      0.1266755420E-01

    ------------------------------------------------
       NWT REQUIRED            5 OUTER ITERATIONS 
       AND A TOTAL OF          9 INNER ITERATIONS.
    ------------------------------------------------

 NO OUTPUT CONTROL FOR STRESS PERIOD   35   TIME STEP   11
 
 SOLVING FOR HEAD 
                                                   Max.-Head-Change                         Max.-Flux-Residual
  Residual-Control   Outer-Iter.   Inner-Iter.     Column Row Layer    Maximum-Head-Change  Column Row Layer    Maximum-Flux-Residual          L2-NORM 
          0                 1           2             4    7     1       0.1069922763E-01       4    7    1         0.5630011779E+00      0.1166977487E+01
          0                 2           2             4    7     1      -0.1040745390E-02       4    7    1        -0.5630027262E-01      0.1166868191E+00
          0                 3           2             4    7     1      -0.2134728494E-02       5    6    1        -0.1159299433E+00      0.2839702470E+00
          0                 4           2             4    7     1       0.2292931286E-02       5    6    1         0.1266071546E+00      0.3100351227E+00
          0                 5           1             4    7     1      -0.9125955014E-04       5    8    1        -0.5179476326E-02      0.1268347323E-01

    ------------------------------------------------
       NWT REQUIRED            5 OUTER ITERATIONS 
       AND A TOTAL OF          9 INNER ITERATIONS.
    ------------------------------------------------

 NO OUTPUT CONTROL FOR STRESS PERIOD   35   TIME STEP   12
 
 SOLVING FOR HEAD 
                                                   Max.-Head-Change                         Max.-Flux-Residual
  Residual-Control   Outer-Iter.   Inner-Iter.     Column Row Layer    Maximum-Head-Change  Column Row Layer    Maximum-Flux-Residual          L2-NORM 
          0                 1           2             4    7     1       0.1056462222E-01       4    7    1         0.5559205827E+00      0.1153075616E+01
          0                 2           2             4    7     1      -0.1027651909E-02       4    7    1        -0.5559221010E-01      0.1152973477E+00
          0                 3           2             4    7     1      -0.2138100576E-02       5    6    1        -0.1161009120E+00      0.2844009620E+00
          0                 4           2             4    7     1       0.2295549154E-02       5    6    1         0.1267509249E+00      0.3103879688E+00
          0                 5           1             4    7     1      -0.9136321695E-04       5    8    1        -0.5185324852E-02      0.1269781153E-01

    ------------------------------------------------
       NWT REQUIRED            5 OUTER ITERATIONS 
       AND A TOTAL OF          9 INNER ITERATIONS.
    ------------------------------------------------

 NO OUTPUT CONTROL FOR STRESS PERIOD   35   TIME STEP   13
 
 SOLVING FOR HEAD 
                                                   Max.-Head-Change                         Max.-Flux-Residual
  Residual-Control   Outer-Iter.   Inner-Iter.     Column Row Layer    Maximum-Head-Change  Column Row Layer    Maximum-Flux-Residual          L2-NORM 
          0                 1           2             4    7     1       0.1043171306E-01       4    7    1         0.5489266635E+00      0.1139530238E+01
          0                 2           2             4    7     1      -0.1014759267E-02       4    7    1        -0.5489284782E-01      0.1140057643E+00
          0                 3           2             4    7     1      -0.2141164323E-02       5    6    1        -0.1162557324E+00      0.2847877200E+00
          0                 4           2             4    7     1       0.2297861243E-02       5    6    1         0.1268787579E+00      0.3107014742E+00
          0                 5           1             4    7     1      -0.9145558963E-04       5    8    1        -0.5190571000E-02      0.1271068147E-01

    ------------------------------------------------
       NWT REQUIRED            5 OUTER ITERATIONS 
       AND A TOTAL OF          9 INNER ITERATIONS.
    ------------------------------------------------

 NO OUTPUT CONTROL FOR STRESS PERIOD   35   TIME STEP   14
 
 SOLVING FOR HEAD 
                                                   Max.-Head-Change                         Max.-Flux-Residual
  Residual-Control   Outer-Iter.   Inner-Iter.     Column Row Layer    Maximum-Head-Change  Column Row Layer    Maximum-Flux-Residual          L2-NORM 
          0                 1           2             4    7     1       0.1030052779E-01       4    7    1         0.5420261914E+00      0.1126282931E+01
          0                 2           2             4    7     1      -0.1001962642E-02       4    7    1        -0.5420276506E-01      0.1126193251E+00
          0                 3           2             4    7     1      -0.2144006092E-02       5    6    1        -0.1163969046E+00      0.2851510980E+00
          0                 4           2             4    7     1       0.2299947446E-02       5    6    1         0.1269931010E+00      0.3109826580E+00
          0                 5           1             4    7     1      -0.9154089871E-04       5    6    1        -0.5195377590E-02      0.1272249885E-01

    ------------------------------------------------
       NWT REQUIRED            5 OUTER ITERATIONS 
       AND A TOTAL OF          9 INNER ITERATIONS.
    ------------------------------------------------

 NO OUTPUT CONTROL FOR STRESS PERIOD   35   TIME STEP   15
 
 SOLVING FOR HEAD 
                                                   Max.-Head-Change                         Max.-Flux-Residual
  Residual-Control   Outer-Iter.   Inner-Iter.     Column Row Layer    Maximum-Head-Change  Column Row Layer    Maximum-Flux-Residual          L2-NORM 
          0                 1           2             4    7     1       0.1017092176E-01       4    7    1         0.5352041038E+00      0.1113322139E+01
          0                 2           2             4    7     1      -0.9893557973E-03       4    7    1        -0.5352057117E-01      0.1113239077E+00
          0                 3           2             4    7     1      -0.2146630838E-02       5    6    1        -0.1165260004E+00      0.2854805636E+00
          0                 4           2             4    7     1       0.2301821405E-02       5    6    1         0.1270957034E+00      0.3112348050E+00
          0                 5           1             4    7     1      -0.9161916134E-04       5    6    1        -0.5199783653E-02      0.1273332991E-01

    ------------------------------------------------
       NWT REQUIRED            5 OUTER ITERATIONS 
       AND A TOTAL OF          9 INNER ITERATIONS.
    ------------------------------------------------

 NO OUTPUT CONTROL FOR STRESS PERIOD   35   TIME STEP   16
 
 SOLVING FOR HEAD 
                                                   Max.-Head-Change                         Max.-Flux-Residual
  Residual-Control   Outer-Iter.   Inner-Iter.     Column Row Layer    Maximum-Head-Change  Column Row Layer    Maximum-Flux-Residual          L2-NORM 
          0                 1           2             4    7     1       0.1004315743E-01       4    7    1         0.5284767746E+00      0.1100695787E+01
          0                 2           2             4    7     1      -0.9769276634E-03       4    7    1        -0.5284782976E-01      0.1100617673E+00
          0                 3           2             4    7     1      -0.2149068753E-02       5    6    1        -0.1166445458E+00      0.2857847312E+00
          0                 4           2             4    7     1       0.2303512276E-02       5    6    1         0.1271881670E+00      0.3114621578E+00
          0                 5           1             4    7     1      -0.9168032839E-04       5    6    1        -0.5203218642E-02      0.1274177933E-01

    ------------------------------------------------
       NWT REQUIRED            5 OUTER ITERATIONS 
       AND A TOTAL OF          9 INNER ITERATIONS.
    ------------------------------------------------

 NO OUTPUT CONTROL FOR STRESS PERIOD   35   TIME STEP   17
 
 SOLVING FOR HEAD 
                                                   Max.-Head-Change                         Max.-Flux-Residual
  Residual-Control   Outer-Iter.   Inner-Iter.     Column Row Layer    Maximum-Head-Change  Column Row Layer    Maximum-Flux-Residual          L2-NORM 
          0                 1           2             4    7     1       0.9916970039E-02       4    7    1         0.5218301770E+00      0.1088366892E+01
          0                 2           2             4    7     1      -0.9646527995E-03       4    7    1        -0.5218315484E-01      0.1088292308E+00
          0                 3           2             4    7     1      -0.2151346291E-02       5    6    1        -0.1167540373E+00      0.2860668997E+00
          0                 4           2             4    7     1       0.2305046886E-02       5    6    1         0.1272719774E+00      0.3116683291E+00
          0                 5           1             4    7     1      -0.9174140599E-04       5    6    1        -0.5206647299E-02      0.1275021099E-01

    ------------------------------------------------
       NWT REQUIRED            5 OUTER ITERATIONS 
       AND A TOTAL OF          9 INNER ITERATIONS.
    ------------------------------------------------

 NO OUTPUT CONTROL FOR STRESS PERIOD   35   TIME STEP   18
 
 SOLVING FOR HEAD 
                                                   Max.-Head-Change                         Max.-Flux-Residual
  Residual-Control   Outer-Iter.   Inner-Iter.     Column Row Layer    Maximum-Head-Change  Column Row Layer    Maximum-Flux-Residual          L2-NORM 
          0                 1           2             4    7     1       0.9792651999E-02       4    7    1         0.5152800985E+00      0.1076344487E+01
          0                 2           2             4    7     1      -0.9525607129E-03       4    7    1        -0.5152818229E-01      0.1076275986E+00
          0                 3           2             4    7     1      -0.2153474899E-02       5    6    1        -0.1168552458E+00      0.2863287677E+00
          0                 4           2             4    7     1       0.2306440194E-02       5    6    1         0.1273479710E+00      0.3118553800E+00
          0                 5           1             4    7     1      -0.9179721105E-04       5    6    1        -0.5209776048E-02      0.1275791200E-01

    ------------------------------------------------
       NWT REQUIRED            5 OUTER ITERATIONS 
       AND A TOTAL OF          9 INNER ITERATIONS.
    ------------------------------------------------

 NO OUTPUT CONTROL FOR STRESS PERIOD   35   TIME STEP   19
 
 SOLVING FOR HEAD 
                                                   Max.-Head-Change                         Max.-Flux-Residual
  Residual-Control   Outer-Iter.   Inner-Iter.     Column Row Layer    Maximum-Head-Change  Column Row Layer    Maximum-Flux-Residual          L2-NORM 
          0                 1           2             4    7     1       0.9670064603E-02       4    7    1         0.5088195664E+00      0.1064609114E+01
          0                 2           2             4    7     1      -0.9406357401E-03       4    7    1        -0.5088209837E-01      0.1064543996E+00
          0                 3           2             4    7     1      -0.2155478665E-02       5    6    1        -0.1169493431E+00      0.2865735798E+00
          0                 4           2             4    7     1       0.2307713196E-02       5    6    1         0.1274172975E+00      0.3120261236E+00
          0                 5           1             4    7     1      -0.9184770142E-04       5    6    1        -0.5212602229E-02      0.1276487068E-01

    ------------------------------------------------
       NWT REQUIRED            5 OUTER ITERATIONS 
       AND A TOTAL OF          9 INNER ITERATIONS.
    ------------------------------------------------

 NO OUTPUT CONTROL FOR STRESS PERIOD   35   TIME STEP   20
 
 SOLVING FOR HEAD 
                                                   Max.-Head-Change                         Max.-Flux-Residual
  Residual-Control   Outer-Iter.   Inner-Iter.     Column Row Layer    Maximum-Head-Change  Column Row Layer    Maximum-Flux-Residual          L2-NORM 
          0                 1           2             4    7     1       0.9549215788E-02       4    7    1         0.5024487660E+00      0.1053149958E+01
          0                 2           2             4    7     1      -0.9288802092E-03       4    7    1        -0.5024500508E-01      0.1053087115E+00
          0                 3           2             4    7     1      -0.2157365309E-02       5    6    1        -0.1170369111E+00      0.2868024958E+00
          0                 4           2             4    7     1       0.2308875419E-02       5    6    1         0.1274804947E+00      0.3121818686E+00
          0                 5           1             4    7     1      -0.9189308261E-04       5    6    1        -0.5215137947E-02      0.1277112780E-01

    ------------------------------------------------
       NWT REQUIRED            5 OUTER ITERATIONS 
       AND A TOTAL OF          9 INNER ITERATIONS.
    ------------------------------------------------

 NO OUTPUT CONTROL FOR STRESS PERIOD   35   TIME STEP   21
 
 SOLVING FOR HEAD 
                                                   Max.-Head-Change                         Max.-Flux-Residual
  Residual-Control   Outer-Iter.   Inner-Iter.     Column Row Layer    Maximum-Head-Change  Column Row Layer    Maximum-Flux-Residual          L2-NORM 
          0                 1           2             4    7     1       0.9430102236E-02       4    7    1         0.4961681089E+00      0.1041948317E+01
          0                 2           2             4    7     1      -0.9172940673E-03       4    7    1        -0.4961695808E-01      0.1041889597E+00
          0                 3           2             4    7     1      -0.2159146921E-02       5    6    1        -0.1171186393E+00      0.2870171342E+00
          0                 4           2             4    7     1       0.2309941685E-02       5    6    1         0.1275383830E+00      0.3123246146E+00
          0                 5           1             4    7     1      -0.9193587087E-04       5    6    1        -0.5217526025E-02      0.1277701309E-01

    ------------------------------------------------
       NWT REQUIRED            5 OUTER ITERATIONS 
       AND A TOTAL OF          9 INNER ITERATIONS.
    ------------------------------------------------

 NO OUTPUT CONTROL FOR STRESS PERIOD   35   TIME STEP   22
 
 SOLVING FOR HEAD 
                                                   Max.-Head-Change                         Max.-Flux-Residual
  Residual-Control   Outer-Iter.   Inner-Iter.     Column Row Layer    Maximum-Head-Change  Column Row Layer    Maximum-Flux-Residual          L2-NORM 
          0                 1           2             4    7     1       0.9312725559E-02       4    7    1         0.4899774230E+00      0.1031009373E+01
          0                 2           2             4    7     1      -0.9058767525E-03       4    7    1        -0.4899790154E-01      0.1030954314E+00
          0                 3           2             4    7     1      -0.2160834529E-02       5    6    1        -0.1171950440E+00      0.2872187582E+00
          0                 4           2             4    7     1       0.2310921839E-02       5    6    1         0.1275915002E+00      0.3124556896E+00
          0                 5           1             4    7     1      -0.9197558197E-04       5    6    1        -0.5219738770E-02      0.1278247504E-01

    ------------------------------------------------
       NWT REQUIRED            5 OUTER ITERATIONS 
       AND A TOTAL OF          9 INNER ITERATIONS.
    ------------------------------------------------

 NO OUTPUT CONTROL FOR STRESS PERIOD   35   TIME STEP   23
 
 SOLVING FOR HEAD 
                                                   Max.-Head-Change                         Max.-Flux-Residual
  Residual-Control   Outer-Iter.   Inner-Iter.     Column Row Layer    Maximum-Head-Change  Column Row Layer    Maximum-Flux-Residual          L2-NORM 
          0                 1           2             4    7     1       0.9197216862E-02       4    7    1         0.4838841700E+00      0.1020320672E+01
          0                 2           2             4    7     1      -0.8946401872E-03       4    7    1        -0.4838853711E-01      0.1020266649E+00
          0                 3           2             4    7     1      -0.2162437847E-02       5    6    1        -0.1172668517E+00      0.2874093246E+00
          0                 4           2             4    7     1       0.2311824914E-02       5    6    1         0.1276403592E+00      0.3125763486E+00
          0                 5           1             4    7     1      -0.9201240081E-04       5    6    1        -0.5221787257E-02      0.1278753457E-01

    ------------------------------------------------
       NWT REQUIRED            5 OUTER ITERATIONS 
       AND A TOTAL OF          9 INNER ITERATIONS.
    ------------------------------------------------

 NO OUTPUT CONTROL FOR STRESS PERIOD   35   TIME STEP   24
 
 SOLVING FOR HEAD 
                                                   Max.-Head-Change                         Max.-Flux-Residual
  Residual-Control   Outer-Iter.   Inner-Iter.     Column Row Layer    Maximum-Head-Change  Column Row Layer    Maximum-Flux-Residual          L2-NORM 
          0                 1           2             4    7     1       0.9083425612E-02       4    7    1         0.4778803920E+00      0.1009867237E+01
          0                 2           2             4    7     1      -0.8835713610E-03       4    7    1        -0.4778815661E-01      0.1009815549E+00
          0                 3           2             4    7     1      -0.2163961428E-02       5    6    1        -0.1173341695E+00      0.2875889735E+00
          0                 4           2             4    7     1       0.2312656712E-02       5    6    1         0.1276852705E+00      0.3126873387E+00
          0                 5           1             4    7     1      -0.9204428028E-04       5    6    1        -0.5223555032E-02      0.1279189893E-01

    ------------------------------------------------
       NWT REQUIRED            5 OUTER ITERATIONS 
       AND A TOTAL OF          9 INNER ITERATIONS.
    ------------------------------------------------

 NO OUTPUT CONTROL FOR STRESS PERIOD   35   TIME STEP   25
 
 SOLVING FOR HEAD 
                                                   Max.-Head-Change                         Max.-Flux-Residual
  Residual-Control   Outer-Iter.   Inner-Iter.     Column Row Layer    Maximum-Head-Change  Column Row Layer    Maximum-Flux-Residual          L2-NORM 
          0                 1           2             4    7     1       0.8971338642E-02       4    7    1         0.4719656609E+00      0.9996374348E+00
          0                 2           2             4    7     1      -0.8726684394E-03       4    7    1        -0.4719668748E-01      0.9995882315E-01
          0                 3           2             4    7     1      -0.2165413450E-02       5    6    1        -0.1173975891E+00      0.2877590113E+00
          0                 4           2             4    7     1       0.2313425981E-02       5    6    1         0.1277267275E+00      0.3127898782E+00
          0                 5           1             4    7     1      -0.9207507271E-04       5    6    1        -0.5225260956E-02      0.1279611870E-01

    ------------------------------------------------
       NWT REQUIRED            5 OUTER ITERATIONS 
       AND A TOTAL OF          9 INNER ITERATIONS.
    ------------------------------------------------

 NO OUTPUT CONTROL FOR STRESS PERIOD   35   TIME STEP   26
 
 SOLVING FOR HEAD 
                                                   Max.-Head-Change                         Max.-Flux-Residual
  Residual-Control   Outer-Iter.   Inner-Iter.     Column Row Layer    Maximum-Head-Change  Column Row Layer    Maximum-Flux-Residual          L2-NORM 
          0                 1           2             4    7     1       0.8861088844E-02       4    7    1         0.4661466734E+00      0.9896487061E+00
          0                 2           2             4    7     1      -0.8619444471E-03       4    7    1        -0.4661480466E-01      0.9896013990E-01
          0                 3           2             4    7     1      -0.2166798316E-02       5    6    1        -0.1174573079E+00      0.2879199897E+00
          0                 4           2             4    7     1       0.2314136488E-02       5    6    1         0.1277649352E+00      0.3128844612E+00
          0                 5           1             4    7     1      -0.9210230030E-04       5    6    1        -0.5226764399E-02      0.1279984271E-01

    ------------------------------------------------
       NWT REQUIRED            5 OUTER ITERATIONS 
       AND A TOTAL OF          9 INNER ITERATIONS.
    ------------------------------------------------

 NO OUTPUT CONTROL FOR STRESS PERIOD   35   TIME STEP   27
 
 SOLVING FOR HEAD 
                                                   Max.-Head-Change                         Max.-Flux-Residual
  Residual-Control   Outer-Iter.   Inner-Iter.     Column Row Layer    Maximum-Head-Change  Column Row Layer    Maximum-Flux-Residual          L2-NORM 
          0                 1           2             4    7     1       0.8752517642E-02       4    7    1         0.4604155629E+00      0.9798654504E+00
          0                 2           2             4    7     1      -0.8513831491E-03       4    7    1        -0.4604167804E-01      0.9798195115E-01
          0                 3           2             4    7     1      -0.2168123527E-02       5    6    1        -0.1175138195E+00      0.2880730295E+00
          0                 4           2             4    7     1       0.2314797025E-02       5    6    1         0.1278003852E+00      0.3129722795E+00
          0                 5           1             4    7     1      -0.9212946560E-04       5    6    1        -0.5228264340E-02      0.1280355028E-01

    ------------------------------------------------
       NWT REQUIRED            5 OUTER ITERATIONS 
       AND A TOTAL OF          9 INNER ITERATIONS.
    ------------------------------------------------

 NO OUTPUT CONTROL FOR STRESS PERIOD   35   TIME STEP   28
 
 SOLVING FOR HEAD 
                                                   Max.-Head-Change                         Max.-Flux-Residual
  Residual-Control   Outer-Iter.   Inner-Iter.     Column Row Layer    Maximum-Head-Change  Column Row Layer    Maximum-Flux-Residual          L2-NORM 
          0                 1           2             4    7     1       0.8645610492E-02       4    7    1         0.4547714857E+00      0.9702891747E+00
          0                 2           2             4    7     1      -0.8409837328E-03       4    7    1        -0.4547725555E-01      0.9702454661E-01
          0                 3           2             4    7     1      -0.2169392977E-02       5    6    1        -0.1175672397E+00      0.2882184786E+00
          0                 4           2             4    7     1       0.2315410739E-02       5    6    1         0.1278332445E+00      0.3130537765E+00
          0                 5           1             4    7     1      -0.9215424209E-04       5    6    1        -0.5229628469E-02      0.1280693540E-01

    ------------------------------------------------
       NWT REQUIRED            5 OUTER ITERATIONS 
       AND A TOTAL OF          9 INNER ITERATIONS.
    ------------------------------------------------

 NO OUTPUT CONTROL FOR STRESS PERIOD   35   TIME STEP   29
 
 SOLVING FOR HEAD 
                                                   Max.-Head-Change                         Max.-Flux-Residual
  Residual-Control   Outer-Iter.   Inner-Iter.     Column Row Layer    Maximum-Head-Change  Column Row Layer    Maximum-Flux-Residual          L2-NORM 
          0                 1           2             4    7     1       0.8540491532E-02       4    7    1         0.4492210661E+00      0.9609221191E+00
          0                 2           2             4    7     1      -0.8307588884E-03       4    7    1        -0.4492223263E-01      0.9608800719E-01
          0                 3           2             4    7     1      -0.2170608218E-02       5    6    1        -0.1176178461E+00      0.2883570626E+00
          0                 4           2             4    7     1       0.2315979625E-02       5    6    1         0.1278636369E+00      0.3131292232E+00
          0                 5           1             4    7     1      -0.9217670853E-04       5    6    1        -0.5230861874E-02      0.1281000901E-01

    ------------------------------------------------
       NWT REQUIRED            5 OUTER ITERATIONS 
       AND A TOTAL OF          9 INNER ITERATIONS.
    ------------------------------------------------

 NO OUTPUT CONTROL FOR STRESS PERIOD   35   TIME STEP   30



 STREAM LISTING     PERIOD     35   STEP       30

 LAYER ROW COL. STREAM  RCH.  FLOW INTO     FLOW TO   FLOW OUT OF   OVRLND.     DIRECT     STREAM       STREAM     STREAM     STREAM   STREAMBED  STREAMBED
                SEG.NO.  NO.  STRM. RCH.    AQUIFER    STRM. RCH.    RUNOFF     PRECIP       ET          HEAD       DEPTH      WIDTH   CONDCTNC.   GRADIENT

   1    1    1     1     1    2.6249E+01  2.5084E-01   2.5998E+01  0.000E+00  0.000E+00  0.000E+00  1.09424E+03  1.197E+00  1.328E+01  5.977E-02  1.399E+00
   1    2    2     1     2    2.5998E+01  3.8795E-01   2.5610E+01  0.000E+00  0.000E+00  0.000E+00  1.08925E+03  1.192E+00  1.322E+01  9.254E-02  1.397E+00
   1    3    3     1     3    2.5610E+01  3.3035E-01   2.5280E+01  0.000E+00  0.000E+00  0.000E+00  1.08361E+03  1.187E+00  1.315E+01  7.890E-02  1.396E+00
   1    3    4     1     4    2.5280E+01  3.0378E-01   2.4976E+01  0.000E+00  0.000E+00  0.000E+00  1.07859E+03  1.182E+00  1.309E+01  7.264E-02  1.394E+00
   1    4    5     2     1    2.2976E+01  3.2316E-01   2.2653E+01  0.000E+00  0.000E+00  0.000E+00  1.07308E+03  1.143E+00  1.200E+01  7.800E-02  1.381E+00
   1    5    6     2     2    2.2653E+01  2.4807E-01   2.2405E+01  0.000E+00  0.000E+00  0.000E+00  1.06764E+03  1.134E+00  1.200E+01  6.000E-02  1.378E+00
   1    6    6     2     3    2.2405E+01  2.4762E-01   2.2157E+01  0.000E+00  0.000E+00  0.000E+00  1.06292E+03  1.127E+00  1.200E+01  6.000E-02  1.376E+00
   1    7    6     2     4    2.2157E+01  2.4717E-01   2.1910E+01  0.000E+00  0.000E+00  0.000E+00  1.05819E+03  1.119E+00  1.200E+01  6.000E-02  1.373E+00
   1    8    6     2     5    2.1910E+01  2.4671E-01   2.1664E+01  0.000E+00  0.000E+00  0.000E+00  1.05347E+03  1.112E+00  1.200E+01  6.000E-02  1.371E+00
   1    3    5     3     1    2.0000E+00  2.8252E-01   1.7175E+00  0.000E+00  0.000E+00  0.000E+00  1.07555E+03  1.909E+00  9.636E+00  7.227E-02  1.955E+00
   1    3    6     3     2    1.7175E+00  2.4905E-01   1.4684E+00  0.000E+00  0.000E+00  0.000E+00  1.07264E+03  1.727E+00  8.909E+00  6.682E-02  1.864E+00
   1    3    7     3     3    1.4684E+00  1.9718E-01   1.2712E+00  0.000E+00  0.000E+00  0.000E+00  1.06987E+03  1.555E+00  8.218E+00  5.547E-02  1.777E+00
   1    4    8     3     4    1.2712E+00  2.2567E-01   1.0456E+00  0.000E+00  0.000E+00  0.000E+00  1.06682E+03  1.364E+00  7.455E+00  6.709E-02  1.682E+00
   1    5    8     3     5    1.0456E+00  1.5790E-01   8.8768E-01  0.000E+00  0.000E+00  0.000E+00  1.06362E+03  1.164E+00  6.655E+00  4.991E-02  1.582E+00
   1    6    8     3     6    8.8768E-01  5.5980E-02   8.3170E-01  0.000E+00  0.000E+00  0.000E+00  1.06158E+03  1.036E+00  6.145E+00  1.844E-02  1.518E+00
   1    5   10     4     1    1.0000E+01  9.0919E-02   9.9091E+00  0.000E+00  0.000E+00  0.000E+00  1.07836E+03  6.368E-01  1.000E+01  2.500E-02  1.212E+00
   1    5    9     4     2    9.9091E+00  1.8158E-01   9.7275E+00  0.000E+00  0.000E+00  0.000E+00  1.07154E+03  6.315E-01  1.000E+01  5.000E-02  1.211E+00
   1    6    8     4     3    9.7275E+00  1.2689E-01   9.6006E+00  0.000E+00  0.000E+00  0.000E+00  1.06381E+03  6.256E-01  1.000E+01  3.500E-02  1.209E+00
   1    6    8     5     1    1.0432E+01  2.2686E-01   1.0205E+01  0.000E+00  0.000E+00  0.000E+00  1.05868E+03  6.790E-01  1.542E+01  6.166E-02  1.226E+00
   1    7    7     5     2    1.0205E+01  2.7894E-01   9.9265E+00  0.000E+00  0.000E+00  0.000E+00  1.05417E+03  6.732E-01  1.519E+01  7.594E-02  1.224E+00
   1    8    7     5     3    9.9265E+00  1.9221E-01   9.7343E+00  0.000E+00  0.000E+00  0.000E+00  1.04992E+03  6.676E-01  1.497E+01  5.241E-02  1.223E+00
   1    8    6     5     4    9.7343E+00  1.3577E-01   9.5985E+00  0.000E+00  0.000E+00  0.000E+00  1.04691E+03  6.637E-01  1.482E+01  3.706E-02  1.221E+00
   1    9    6     6     1    3.0544E+01  2.6241E-01   3.0282E+01  0.000E+00  0.000E+00  0.000E+00  1.04410E+03  1.373E+00  1.200E+01  6.000E-02  1.458E+00
   1   10    7     6     2    3.0282E+01  2.6198E-01   3.0020E+01  0.000E+00  0.000E+00  0.000E+00  1.03955E+03  1.366E+00  1.200E+01  6.000E-02  1.455E+00
   1   11    7     6     3    3.0020E+01  2.6155E-01   2.9758E+01  0.000E+00  0.000E+00  0.000E+00  1.03500E+03  1.359E+00  1.200E+01  6.000E-02  1.453E+00
   1   12    7     6     4    2.9758E+01  2.6112E-01   2.9497E+01  0.000E+00  0.000E+00  0.000E+00  1.03044E+03  1.352E+00  1.200E+01  6.000E-02  1.451E+00
   1   13    7     6     5    2.9497E+01  6.5528E-03   2.9491E+01  0.000E+00  0.000E+00  0.000E+00  1.02726E+03  1.348E+00  1.200E+01  2.400E-02  9.101E-02
   1   14    9     7     1    1.5000E+02  1.3431E+00   1.4866E+02  0.000E+00  0.000E+00  0.000E+00  1.03987E+03  2.288E+00  5.529E+01  5.593E-01  8.004E-01
   1   13    8     7     2    1.4866E+02  1.8623E+00   1.4679E+02  0.000E+00  0.000E+00  0.000E+00  1.03478E+03  2.279E+00  5.526E+01  6.148E-01  1.010E+00
   1   13    7     7     3    1.4679E+02  1.5106E+00   1.4528E+02  0.000E+00  0.000E+00  0.000E+00  1.02969E+03  2.270E+00  5.522E+01  5.584E-01  9.017E-01
   1   13    6     8     1    1.7477E+02  9.7688E-01   1.7380E+02  0.000E+00  0.000E+00  0.000E+00  1.02485E+03  2.980E+00  4.321E+01  4.403E-01  7.395E-01
   1   13    5     8     2    1.7380E+02  2.1457E-01   1.7358E+02  0.000E+00  0.000E+00  0.000E+00  1.01860E+03  2.976E+00  4.315E+01  4.397E-01  1.626E-01
   1   13    4     8     3    1.7358E+02 -2.3320E+00   1.7592E+02  0.000E+00  0.000E+00  0.000E+00  1.01236E+03  2.983E+00  4.325E+01  4.407E+00 -1.764E-01
   1   13    3     8     4    1.7592E+02 -3.5896E+00   1.7950E+02  0.000E+00  0.000E+00  0.000E+00  1.00613E+03  3.002E+00  4.352E+01  4.435E+00 -2.698E-01
   1   13    2     8     5    1.7950E+02 -2.5483E+00   1.8205E+02  0.000E+00  0.000E+00  0.000E+00  9.99896E+02  3.021E+00  4.381E+01  4.464E+00 -1.903E-01
   1   13    1     8     6    1.8205E+02 -1.9606E+00   1.8401E+02  0.000E+00  0.000E+00  0.000E+00  9.94910E+02  3.035E+00  4.401E+01  2.691E+00 -2.429E-01
   1    8    6     9     1    7.1778E-01  0.0000E+00   7.1778E-01  0.000E+00  0.000E+00  0.000E+00  1.07922E+03  4.665E-01  4.000E+00  0.000E+00  1.156E+00
   1    8    5     9     2    7.1778E-01  0.0000E+00   7.1778E-01  0.000E+00  0.000E+00  0.000E+00  1.07872E+03  4.665E-01  4.000E+00  0.000E+00  1.156E+00





UNSATURATED ZONE PACKAGE VOLUMETRIC BUDGET FOR  TIME STEP    30 STRESS PERIOD   35
  ------------------------------------------------------------------------------



     CUMULATIVE VOLUMES      L**3       RATES FOR THIS TIME STEP      L**3/T
     ------------------                 ------------------------

           IN:                                      IN:
           ---                                      ---
        INFILTRATION =  1420950755.2112          INFILTRATION =           1.5653

          OUT:                                     OUT:
          ----                                     ----
              UZF ET =  1281154667.1753                UZF ET =           1.5675
        UZF RECHARGE =       73224.0000          UZF RECHARGE =       0.0000E+00

            IN - OUT =   139722864.0359              IN - OUT =      -2.2103E-03

          STORAGE:                                 STORAGE:
          --------                                 --------
      STORAGE CHANGE =   139724220.6935        STORAGE CHANGE =      -2.2103E-03

 PERCENT DISCREPANCY IS DIFFERENCE BETWEEN IN-OUT MINUS CHANGE IN STORAGE
 DIVIDED BY THE AVERAGE OF IN AND OUT TIMES 100

 PERCENT DISCREPANCY =          -0.00     PERCENT DISCREPANCY =          -0.00






1
  VOLUMETRIC BUDGET FOR AGRICULTURAL FIELDS AT  END OF TIME STEP   30, STRESS PERIOD  35
  ------------------------------------------------------------------------------

     CUMULATIVE VOLUMES      L**3       RATES FOR THIS TIME STEP      L**3/T
     ------------------                 ------------------------

           IN:                                      IN:
           ---                                      ---
               AG WELLS  =   381194528.0000                 AG WELLS  =           0.0000
      DIVERSION SEGMENTS =   963956736.0000        DIVERSION SEGMENTS =           0.7178
       IRRIGATION PONDS  =           0.0000         IRRIGATION PONDS  =           0.0000
           GW IRRIGATION =           0.0000             GW IRRIGATION =           0.0000
           SW IRRIGATION =           0.0000             SW IRRIGATION =           0.0000
        SYSTEM LOSSES GW =           0.0000          SYSTEM LOSSES GW =           0.0000
        SYSTEM LOSSES SW =           0.0000          SYSTEM LOSSES SW =           0.0000

                TOTAL IN =  1345151232.0000                  TOTAL IN =           0.7178

          OUT:                                     OUT:
          ----                                     ----
               AG WELLS  =           0.0000                 AG WELLS  =           0.0000
      DIVERSION SEGMENTS =           0.0000        DIVERSION SEGMENTS =           0.0000
       IRRIGATION PONDS  =           0.0000         IRRIGATION PONDS  =           0.0000
           GW IRRIGATION =   381194528.0000             GW IRRIGATION =           0.0000
           SW IRRIGATION =   963976704.0000             SW IRRIGATION =           0.7178
        SYSTEM LOSSES GW =           0.0000          SYSTEM LOSSES GW =           0.0000
        SYSTEM LOSSES SW =           0.0000          SYSTEM LOSSES SW =           0.0000

               TOTAL OUT =  1345171200.0000                 TOTAL OUT =           0.7178

                IN - OUT =      -19968.0000                  IN - OUT =      -1.4305E-05

     PERCENT DISCREPANCY =          -0.00         PERCENT DISCREPANCY =          -0.00



1
  VOLUMETRIC BUDGET FOR ENTIRE MODEL AT END OF TIME STEP   30, STRESS PERIOD  35
  ------------------------------------------------------------------------------

     CUMULATIVE VOLUMES      L**3       RATES FOR THIS TIME STEP      L**3/T
     ------------------                 ------------------------

           IN:                                      IN:
           ---                                      ---
             STORAGE     =   653890304.0000               STORAGE     =           1.7573
       CONSTANT HEAD     =           0.0000         CONSTANT HEAD     =           0.0000
     HEAD DEP BOUNDS     =    25584430.0000       HEAD DEP BOUNDS     =           0.2863
      STREAM LEAKAGE     =  1072714496.0000        STREAM LEAKAGE     =          11.9482
        UZF RECHARGE     =       73223.9531          UZF RECHARGE     =           0.0000
               GW ET     =           0.0000                 GW ET     =           0.0000
     SURFACE LEAKAGE     =           0.0000       SURFACE LEAKAGE     =           0.0000
           AG WELLS      =           0.0000             AG WELLS      =           0.0000

                TOTAL IN =  1752262400.0000                  TOTAL IN =          13.9918

          OUT:                                     OUT:
          ----                                     ----
             STORAGE     =   378956608.0000               STORAGE     =           3.2705
       CONSTANT HEAD     =           0.0000         CONSTANT HEAD     =           0.0000
     HEAD DEP BOUNDS     =    26020364.0000       HEAD DEP BOUNDS     =           0.2903
      STREAM LEAKAGE     =   963111488.0000        STREAM LEAKAGE     =          10.4305
        UZF RECHARGE     =           0.0000          UZF RECHARGE     =           0.0000
               GW ET     =     2982784.2500                 GW ET     =           0.0000
     SURFACE LEAKAGE     =           0.0000       SURFACE LEAKAGE     =           0.0000
           AG WELLS      =   381194528.0000             AG WELLS      =           0.0000

               TOTAL OUT =  1752265728.0000                 TOTAL OUT =          13.9914

                IN - OUT =       -3328.0000                  IN - OUT =       4.0245E-04

     PERCENT DISCREPANCY =          -0.00         PERCENT DISCREPANCY =           0.00






         TIME SUMMARY AT END OF TIME STEP   30 IN STRESS PERIOD   35
                    SECONDS     MINUTES      HOURS       DAYS        YEARS
                    -----------------------------------------------------------
   TIME STEP LENGTH  87667.      1461.1      24.352      1.0147     2.77799E-03
 STRESS PERIOD TIME 2.63000E+06  43833.      730.56      30.440     8.33397E-02
         TOTAL TIME 8.95061E+07 1.49177E+06  24863.      1036.0      2.8363    
1
1
                            STRESS PERIOD NO.   36, LENGTH =   2630000.    
                            -----------------------------------------------

                              NUMBER OF TIME STEPS =    30

                               MULTIPLIER FOR DELT =     1.000

                            INITIAL TIME STEP SIZE =   87666.66    

 REUSING NON-PARAMETER GHB CELLS FROM LAST STRESS PERIOD

      2 GHB CELLS

 REUSING STREAM SEGMENT DATA FROM LAST STRESS PERIOD



            AREAL INFILTRATION RATE
 READING ON UNIT   19 WITH FORMAT: (FREE)              

            1           2           3           4           5           6           7           8           9          10
 ........................................................................................................................
   1   1.0000E-10  2.0000E-10   0.000       0.000       0.000       0.000       0.000       0.000       0.000       0.000    
   2   2.0000E-10  1.0000E-10  2.0000E-10   0.000       0.000      8.0000E-10  8.0000E-10  5.0000E-10   0.000       0.000    
   3    0.000      5.0000E-10  1.0000E-10  1.0000E-10  8.0000E-10  8.0000E-10  5.0000E-10  5.0000E-10   0.000       0.000    
   4   8.0000E-10  5.0000E-10  1.0000E-10  1.0000E-10  1.0000E-10  1.0000E-10  1.0000E-10  1.0000E-10  2.0000E-10   0.000    
   5   8.0000E-10  5.0000E-10  1.0000E-10  1.0000E-10  1.0000E-10  1.0000E-10  1.0000E-10  1.0000E-10  1.0000E-10  1.0000E-10
   6   8.0000E-10  5.0000E-10  5.0000E-10  2.0000E-10  2.0000E-10  1.0000E-10  1.0000E-10  1.0000E-10  1.0000E-10  5.0000E-10
   7   8.0000E-10  5.0000E-10  5.0000E-10  2.0000E-10  2.0000E-10  1.0000E-10  1.0000E-10  2.0000E-10  2.0000E-10   0.000    
   8    0.000      5.0000E-10  5.0000E-10  2.0000E-10  2.0000E-10  1.0000E-10  1.0000E-10  2.0000E-10  5.0000E-10   0.000    
   9    0.000      5.0000E-10  5.0000E-10  2.0000E-10  2.0000E-10  1.0000E-10  1.0000E-10  2.0000E-10  5.0000E-10   0.000    
  10    0.000      5.0000E-10  5.0000E-10  2.0000E-10  2.0000E-10  1.0000E-10  1.0000E-10  2.0000E-10  5.0000E-10  8.0000E-10
  11    0.000      1.0000E-10  1.0000E-10  1.0000E-10  1.0000E-10  1.0000E-10  1.0000E-10  2.0000E-10  5.0000E-10   0.000    
  12   1.0000E-10  1.0000E-10  1.0000E-10  1.0000E-10  1.0000E-10  1.0000E-10  1.0000E-10  1.0000E-10  2.0000E-10   0.000    
  13   1.0000E-10  1.0000E-10  2.0000E-10  2.0000E-10  2.0000E-10  2.0000E-10  2.0000E-10  1.0000E-10  1.0000E-10   0.000    
  14    0.000      2.0000E-10  5.0000E-10  5.0000E-10  5.0000E-10  5.0000E-10  5.0000E-10  2.0000E-10  1.0000E-10   0.000    
  15    0.000       0.000      8.0000E-10  8.0000E-10  8.0000E-10  8.0000E-10   0.000       0.000       0.000       0.000    

                  ET RATE =  5.000000E-10

 USING ET EXTINCTION DEPTH FROM PREVIOUS STRESS PERIOD. CURRENT PERIOD IS:      36

 USING EXTINCTION WATER CONTENT FROM PREVIOUS STRESS PERIOD. CURRENT PERIOD IS:      36

 USING AIR ENTRY PRESSURE FROM PREVIOUS STRESS PERIOD. CURRENT PERIOD IS:      36

 USING ROOT PRESSURE HEAD FROM PREVIOUS STRESS PERIOD. CURRENT PERIOD IS:      36

 USING ROOT ACTIVITY FROM PREVIOUS STRESS PERIOD. CURRENT PERIOD IS:      36

 PROCESSING AG STRESS PERIOD DATA

 READING AG STRESS PERIOD DATA

 READING IRRIGATION SEGMENT

 READING IRRIGATION WELL

 READING SUPPLEMENTAL WELL

 NO IRRPOND OR REUSING IRRPOND DATA FROM LAST STRESS PERIOD

 END PROCESSING AG STRESS PERIOD DATA OPTIONS
 
 SOLVING FOR HEAD 
                                                   Max.-Head-Change                         Max.-Flux-Residual
  Residual-Control   Outer-Iter.   Inner-Iter.     Column Row Layer    Maximum-Head-Change  Column Row Layer    Maximum-Flux-Residual          L2-NORM 
          0                 1           2             4    7     1       0.8436999166E-02       4    7    1         0.4437559837E+00      0.9517482252E+00
          0                 2           2             4    7     1      -0.8206914660E-03       4    7    1        -0.4437570042E-01      0.9517068335E-01
          0                 3           1             4    7     1       0.5588603312E-04       4    7    1         0.3106299410E-02      0.6661555028E-02

    ------------------------------------------------
       NWT REQUIRED            3 OUTER ITERATIONS 
       AND A TOTAL OF          5 INNER ITERATIONS.
    ------------------------------------------------

 NO OUTPUT CONTROL FOR STRESS PERIOD   36   TIME STEP    1
 
 SOLVING FOR HEAD 
                                                   Max.-Head-Change                         Max.-Flux-Residual
  Residual-Control   Outer-Iter.   Inner-Iter.     Column Row Layer    Maximum-Head-Change  Column Row Layer    Maximum-Flux-Residual          L2-NORM 
          0                 1           2             4    7     1       0.8335162301E-02       4    7    1         0.4383803533E+00      0.9696582314E+00
          0                 2           2             4    7     1      -0.8107854802E-03       4    7    1        -0.4383813500E-01      0.9685645867E-01
          0                 3           1             4    7     1       0.5521147182E-04       4    7    1         0.3068669824E-02      0.6769891066E-02

    ------------------------------------------------
       NWT REQUIRED            3 OUTER ITERATIONS 
       AND A TOTAL OF          5 INNER ITERATIONS.
    ------------------------------------------------

 NO OUTPUT CONTROL FOR STRESS PERIOD   36   TIME STEP    2
 
 SOLVING FOR HEAD 
                                                   Max.-Head-Change                         Max.-Flux-Residual
  Residual-Control   Outer-Iter.   Inner-Iter.     Column Row Layer    Maximum-Head-Change  Column Row Layer    Maximum-Flux-Residual          L2-NORM 
          0                 1           2             4    7     1       0.8234862203E-02       4    7    1         0.4330854709E+00      0.9623245667E+00
          0                 2           2             4    7     1      -0.8010289818E-03       4    7    1        -0.4330864447E-01      0.9611958685E-01
          0                 3           1             4    7     1       0.5454709125E-04       4    7    1         0.3031605505E-02      0.6717955012E-02

    ------------------------------------------------
       NWT REQUIRED            3 OUTER ITERATIONS 
       AND A TOTAL OF          5 INNER ITERATIONS.
    ------------------------------------------------

 NO OUTPUT CONTROL FOR STRESS PERIOD   36   TIME STEP    3
 
 SOLVING FOR HEAD 
                                                   Max.-Head-Change                         Max.-Flux-Residual
  Residual-Control   Outer-Iter.   Inner-Iter.     Column Row Layer    Maximum-Head-Change  Column Row Layer    Maximum-Flux-Residual          L2-NORM 
          0                 1           2             4    7     1       0.8136215308E-02       4    7    1         0.4278776470E+00      0.9504494249E+00
          0                 2           2             4    7     1      -0.7914332948E-03       4    7    1        -0.4278785981E-01      0.9494702589E-01
          0                 3           1             4    7     1       0.5389366048E-04       4    7    1         0.2995150574E-02      0.6637259538E-02

    ------------------------------------------------
       NWT REQUIRED            3 OUTER ITERATIONS 
       AND A TOTAL OF          5 INNER ITERATIONS.
    ------------------------------------------------

 NO OUTPUT CONTROL FOR STRESS PERIOD   36   TIME STEP    4
 
 SOLVING FOR HEAD 
                                                   Max.-Head-Change                         Max.-Flux-Residual
  Residual-Control   Outer-Iter.   Inner-Iter.     Column Row Layer    Maximum-Head-Change  Column Row Layer    Maximum-Flux-Residual          L2-NORM 
          0                 1           2             4    7     1       0.8039068491E-02       4    7    1         0.4227481603E+00      0.9391995788E+00
          0                 2           2             4    7     1      -0.7819835258E-03       4    7    1        -0.4227490892E-01      0.9383508518E-01
          0                 3           1             4    7     1       0.5325016692E-04       4    7    1         0.2959244027E-02      0.6560578675E-02

    ------------------------------------------------
       NWT REQUIRED            3 OUTER ITERATIONS 
       AND A TOTAL OF          5 INNER ITERATIONS.
    ------------------------------------------------

 NO OUTPUT CONTROL FOR STRESS PERIOD   36   TIME STEP    5
 
 SOLVING FOR HEAD 
                                                   Max.-Head-Change                         Max.-Flux-Residual
  Residual-Control   Outer-Iter.   Inner-Iter.     Column Row Layer    Maximum-Head-Change  Column Row Layer    Maximum-Flux-Residual          L2-NORM 
          0                 1           2             4    7     1       0.7943543506E-02       4    7    1         0.4177038301E+00      0.9284951184E+00
          0                 2           2             4    7     1      -0.7726915166E-03       4    7    1        -0.4177047370E-01      0.9277588292E-01
          0                 3           1             4    7     1       0.5261741584E-04       4    7    1         0.2923933555E-02      0.6487512356E-02

    ------------------------------------------------
       NWT REQUIRED            3 OUTER ITERATIONS 
       AND A TOTAL OF          5 INNER ITERATIONS.
    ------------------------------------------------

 NO OUTPUT CONTROL FOR STRESS PERIOD   36   TIME STEP    6
 
 SOLVING FOR HEAD 
                                                   Max.-Head-Change                         Max.-Flux-Residual
  Residual-Control   Outer-Iter.   Inner-Iter.     Column Row Layer    Maximum-Head-Change  Column Row Layer    Maximum-Flux-Residual          L2-NORM 
          0                 1           2             4    7     1       0.7849481327E-02       4    7    1         0.4127362104E+00      0.9182730694E+00
          0                 2           2             4    7     1      -0.7635417999E-03       4    7    1        -0.4127370959E-01      0.9176339699E-01
          0                 3           1             4    7     1       0.5199435476E-04       4    7    1         0.2889160090E-02      0.6417481179E-02

    ------------------------------------------------
       NWT REQUIRED            3 OUTER ITERATIONS 
       AND A TOTAL OF          5 INNER ITERATIONS.
    ------------------------------------------------

 NO OUTPUT CONTROL FOR STRESS PERIOD   36   TIME STEP    7
 
 SOLVING FOR HEAD 
                                                   Max.-Head-Change                         Max.-Flux-Residual
  Residual-Control   Outer-Iter.   Inner-Iter.     Column Row Layer    Maximum-Head-Change  Column Row Layer    Maximum-Flux-Residual          L2-NORM 
          0                 1           2             4    7     1       0.7756995588E-02       4    7    1         0.4078518150E+00      0.9084776181E+00
          0                 2           2             4    7     1      -0.7545454289E-03       4    7    1        -0.4078526798E-01      0.9079240159E-01
          0                 3           1             4    7     1       0.5138173510E-04       4    7    1         0.2854969179E-02      0.6350252747E-02

    ------------------------------------------------
       NWT REQUIRED            3 OUTER ITERATIONS 
       AND A TOTAL OF          5 INNER ITERATIONS.
    ------------------------------------------------

 NO OUTPUT CONTROL FOR STRESS PERIOD   36   TIME STEP    8
 
 SOLVING FOR HEAD 
                                                   Max.-Head-Change                         Max.-Flux-Residual
  Residual-Control   Outer-Iter.   Inner-Iter.     Column Row Layer    Maximum-Head-Change  Column Row Layer    Maximum-Flux-Residual          L2-NORM 
          0                 1           2             4    7     1       0.7665928204E-02       4    7    1         0.4030417760E+00      0.8990660303E+00
          0                 2           2             4    7     1      -0.7456870254E-03       4    7    1        -0.4030426205E-01      0.8985885102E-01
          0                 3           1             4    7     1       0.5077851103E-04       4    7    1         0.2821298762E-02      0.6286120228E-02

    ------------------------------------------------
       NWT REQUIRED            3 OUTER ITERATIONS 
       AND A TOTAL OF          5 INNER ITERATIONS.
    ------------------------------------------------

 NO OUTPUT CONTROL FOR STRESS PERIOD   36   TIME STEP    9
 
 SOLVING FOR HEAD 
                                                   Max.-Head-Change                         Max.-Flux-Residual
  Residual-Control   Outer-Iter.   Inner-Iter.     Column Row Layer    Maximum-Head-Change  Column Row Layer    Maximum-Flux-Residual          L2-NORM 
          0                 1           2             4    7     1       0.7576530076E-02       4    7    1         0.3983200370E+00      0.8900059468E+00
          0                 2           2             4    7     1      -0.7367903743E-03       4    7    1        -0.3983603984E-01      0.8896016036E-01
          0                 3           1             4    7     1       0.4997751732E-04       4    7    1         0.2776103275E-02      0.6218699787E-02

    ------------------------------------------------
       NWT REQUIRED            3 OUTER ITERATIONS 
       AND A TOTAL OF          5 INNER ITERATIONS.
    ------------------------------------------------

 NO OUTPUT CONTROL FOR STRESS PERIOD   36   TIME STEP   10
 
 SOLVING FOR HEAD 
                                                   Max.-Head-Change                         Max.-Flux-Residual
  Residual-Control   Outer-Iter.   Inner-Iter.     Column Row Layer    Maximum-Head-Change  Column Row Layer    Maximum-Flux-Residual          L2-NORM 
          0                 1           2             4    7     1       0.7488365426E-02       4    7    1         0.3936627352E+00      0.8812526004E+00
          0                 2           2             4    7     1      -0.7308577990E-03       4    7    1        -0.3951975063E-01      0.8814610301E-01
          0                 3           1             4    7     1       0.4976869410E-04       4    7    1         0.2766382814E-02      0.6166831234E-02

    ------------------------------------------------
       NWT REQUIRED            3 OUTER ITERATIONS 
       AND A TOTAL OF          5 INNER ITERATIONS.
    ------------------------------------------------

 NO OUTPUT CONTROL FOR STRESS PERIOD   36   TIME STEP   11
 
 SOLVING FOR HEAD 
                                                   Max.-Head-Change                         Max.-Flux-Residual
  Residual-Control   Outer-Iter.   Inner-Iter.     Column Row Layer    Maximum-Head-Change  Column Row Layer    Maximum-Flux-Residual          L2-NORM 
          0                 1           2             4    7     1       0.7396811446E-02       4    7    1         0.3889611930E+00      0.8727408973E+00
          0                 2           2             4    7     1      -0.7195094355E-03       4    7    1        -0.3889621313E-01      0.8724229977E-01
          0                 3           1             4    7     1       0.4899591279E-04       4    7    1         0.2722735207E-02      0.6103946670E-02

    ------------------------------------------------
       NWT REQUIRED            3 OUTER ITERATIONS 
       AND A TOTAL OF          5 INNER ITERATIONS.
    ------------------------------------------------

 NO OUTPUT CONTROL FOR STRESS PERIOD   36   TIME STEP   12
 
 SOLVING FOR HEAD 
                                                   Max.-Head-Change                         Max.-Flux-Residual
  Residual-Control   Outer-Iter.   Inner-Iter.     Column Row Layer    Maximum-Head-Change  Column Row Layer    Maximum-Flux-Residual          L2-NORM 
          0                 1           2             4    7     1       0.7309304015E-02       4    7    1         0.3843296902E+00      0.8644919212E+00
          0                 2           2             4    7     1      -0.7109973091E-03       4    7    1        -0.3843306017E-01      0.8642134856E-01
          0                 3           1             4    7     1       0.4841626895E-04       4    7    1         0.2690314514E-02      0.6046916909E-02

    ------------------------------------------------
       NWT REQUIRED            3 OUTER ITERATIONS 
       AND A TOTAL OF          5 INNER ITERATIONS.
    ------------------------------------------------

 NO OUTPUT CONTROL FOR STRESS PERIOD   36   TIME STEP   13
 
 SOLVING FOR HEAD 
                                                   Max.-Head-Change                         Max.-Flux-Residual
  Residual-Control   Outer-Iter.   Inner-Iter.     Column Row Layer    Maximum-Head-Change  Column Row Layer    Maximum-Flux-Residual          L2-NORM 
          0                 1           2             4    7     1       0.7223566222E-02       4    7    1         0.3797925332E+00      0.8564842950E+00
          0                 2           2             4    7     1      -0.7026573215E-03       4    7    1        -0.3797934187E-01      0.8562416454E-01
          0                 3           1             4    7     1       0.4784834705E-04       4    7    1         0.2658554238E-02      0.5991479723E-02

    ------------------------------------------------
       NWT REQUIRED            3 OUTER ITERATIONS 
       AND A TOTAL OF          5 INNER ITERATIONS.
    ------------------------------------------------

 NO OUTPUT CONTROL FOR STRESS PERIOD   36   TIME STEP   14
 
 SOLVING FOR HEAD 
                                                   Max.-Head-Change                         Max.-Flux-Residual
  Residual-Control   Outer-Iter.   Inner-Iter.     Column Row Layer    Maximum-Head-Change  Column Row Layer    Maximum-Flux-Residual          L2-NORM 
          0                 1           2             4    7     1       0.7139008164E-02       4    7    1         0.3753176073E+00      0.8486829472E+00
          0                 2           2             4    7     1      -0.6944320912E-03       4    7    1        -0.3753184675E-01      0.8484695311E-01
          0                 3           1             4    7     1       0.4728823988E-04       4    7    1         0.2627229591E-02      0.5937171482E-02

    ------------------------------------------------
       NWT REQUIRED            3 OUTER ITERATIONS 
       AND A TOTAL OF          5 INNER ITERATIONS.
    ------------------------------------------------

 NO OUTPUT CONTROL FOR STRESS PERIOD   36   TIME STEP   15
 
 SOLVING FOR HEAD 
                                                   Max.-Head-Change                         Max.-Flux-Residual
  Residual-Control   Outer-Iter.   Inner-Iter.     Column Row Layer    Maximum-Head-Change  Column Row Layer    Maximum-Flux-Residual          L2-NORM 
          0                 1           2             4    7     1       0.7056429879E-02       4    7    1         0.3709481327E+00      0.8411069580E+00
          0                 2           2             4    7     1      -0.6863994402E-03       4    7    1        -0.3709489686E-01      0.8409204831E-01
          0                 3           1             4    7     1       0.4674124676E-04       4    7    1         0.2596643123E-02      0.5884778678E-02

    ------------------------------------------------
       NWT REQUIRED            3 OUTER ITERATIONS 
       AND A TOTAL OF          5 INNER ITERATIONS.
    ------------------------------------------------

 NO OUTPUT CONTROL FOR STRESS PERIOD   36   TIME STEP   16
 
 SOLVING FOR HEAD 
                                                   Max.-Head-Change                         Max.-Flux-Residual
  Residual-Control   Outer-Iter.   Inner-Iter.     Column Row Layer    Maximum-Head-Change  Column Row Layer    Maximum-Flux-Residual          L2-NORM 
          0                 1           2             4    7     1       0.6974956862E-02       4    7    1         0.3666370224E+00      0.8337085717E+00
          0                 2           2             4    7     1      -0.6784743026E-03       4    7    1        -0.3666378348E-01      0.8335461014E-01
          0                 3           1             4    7     1       0.4620157443E-04       4    7    1         0.2566465192E-02      0.5833443940E-02

    ------------------------------------------------
       NWT REQUIRED            3 OUTER ITERATIONS 
       AND A TOTAL OF          5 INNER ITERATIONS.
    ------------------------------------------------

 NO OUTPUT CONTROL FOR STRESS PERIOD   36   TIME STEP   17
 
 SOLVING FOR HEAD 
                                                   Max.-Head-Change                         Max.-Flux-Residual
  Residual-Control   Outer-Iter.   Inner-Iter.     Column Row Layer    Maximum-Head-Change  Column Row Layer    Maximum-Flux-Residual          L2-NORM 
          0                 1           2             4    7     1       0.6895120649E-02       4    7    1         0.3624127419E+00      0.8265016162E+00
          0                 2           2             4    7     1      -0.6707083825E-03       4    7    1        -0.3624135314E-01      0.8263582273E-01
          0                 3           1             4    7     1       0.4567274434E-04       4    7    1         0.2536895067E-02      0.5783199128E-02

    ------------------------------------------------
       NWT REQUIRED            3 OUTER ITERATIONS 
       AND A TOTAL OF          5 INNER ITERATIONS.
    ------------------------------------------------

 NO OUTPUT CONTROL FOR STRESS PERIOD   36   TIME STEP   18
 
 SOLVING FOR HEAD 
                                                   Max.-Head-Change                         Max.-Flux-Residual
  Residual-Control   Outer-Iter.   Inner-Iter.     Column Row Layer    Maximum-Head-Change  Column Row Layer    Maximum-Flux-Residual          L2-NORM 
          0                 1           2             4    7     1       0.6816606902E-02       4    7    1         0.3582585656E+00      0.8194592535E+00
          0                 2           2             4    7     1      -0.6630711035E-03       4    7    1        -0.3582593332E-01      0.8193329410E-01
          0                 3           1             4    7     1       0.4515267399E-04       4    7    1         0.2507815689E-02      0.5734167092E-02

    ------------------------------------------------
       NWT REQUIRED            3 OUTER ITERATIONS 
       AND A TOTAL OF          5 INNER ITERATIONS.
    ------------------------------------------------

 NO OUTPUT CONTROL FOR STRESS PERIOD   36   TIME STEP   19
 
 SOLVING FOR HEAD 
                                                   Max.-Head-Change                         Max.-Flux-Residual
  Residual-Control   Outer-Iter.   Inner-Iter.     Column Row Layer    Maximum-Head-Change  Column Row Layer    Maximum-Flux-Residual          L2-NORM 
          0                 1           2             4    7     1       0.6739657270E-02       4    7    1         0.3541877196E+00      0.8125805983E+00
          0                 2           2             4    7     1      -0.6555859714E-03       4    7    1        -0.3541884658E-01      0.8124692048E-01
          0                 3           1             4    7     1       0.4464296520E-04       4    7    1         0.2479319635E-02      0.5686307708E-02

    ------------------------------------------------
       NWT REQUIRED            3 OUTER ITERATIONS 
       AND A TOTAL OF          5 INNER ITERATIONS.
    ------------------------------------------------

 NO OUTPUT CONTROL FOR STRESS PERIOD   36   TIME STEP   20
 
 SOLVING FOR HEAD 
                                                   Max.-Head-Change                         Max.-Flux-Residual
  Residual-Control   Outer-Iter.   Inner-Iter.     Column Row Layer    Maximum-Head-Change  Column Row Layer    Maximum-Flux-Residual          L2-NORM 
          0                 1           2             4    7     1       0.6663959428E-02       4    7    1         0.3501832084E+00      0.8058450511E+00
          0                 2           2             4    7     1      -0.6482226051E-03       4    7    1        -0.3501839340E-01      0.8057466675E-01
          0                 3           1             4    7     1       0.4414154732E-04       4    7    1         0.2451287924E-02      0.5639266038E-02

    ------------------------------------------------
       NWT REQUIRED            3 OUTER ITERATIONS 
       AND A TOTAL OF          5 INNER ITERATIONS.
    ------------------------------------------------

 NO OUTPUT CONTROL FOR STRESS PERIOD   36   TIME STEP   21
 
 SOLVING FOR HEAD 
                                                   Max.-Head-Change                         Max.-Flux-Residual
  Residual-Control   Outer-Iter.   Inner-Iter.     Column Row Layer    Maximum-Head-Change  Column Row Layer    Maximum-Flux-Residual          L2-NORM 
          0                 1           2             4    7     1       0.6589758535E-02       4    7    1         0.3462583634E+00      0.7992547763E+00
          0                 2           2             4    7     1      -0.6410048520E-03       4    7    1        -0.3462590693E-01      0.7991682865E-01
          0                 3           1             4    7     1       0.4365004486E-04       4    7    1         0.2423813846E-02      0.5593420314E-02

    ------------------------------------------------
       NWT REQUIRED            3 OUTER ITERATIONS 
       AND A TOTAL OF          5 INNER ITERATIONS.
    ------------------------------------------------

 NO OUTPUT CONTROL FOR STRESS PERIOD   36   TIME STEP   22
 
 SOLVING FOR HEAD 
                                                   Max.-Head-Change                         Max.-Flux-Residual
  Residual-Control   Outer-Iter.   Inner-Iter.     Column Row Layer    Maximum-Head-Change  Column Row Layer    Maximum-Flux-Residual          L2-NORM 
          0                 1           2             4    7     1       0.6516748397E-02       4    7    1         0.3423963704E+00      0.7928042762E+00
          0                 2           2             4    7     1      -0.6339029287E-03       4    7    1        -0.3423970571E-01      0.7927275971E-01
          0                 3           1             4    7     1       0.4316643072E-04       4    7    1         0.2396779798E-02      0.5548392604E-02

    ------------------------------------------------
       NWT REQUIRED            3 OUTER ITERATIONS 
       AND A TOTAL OF          5 INNER ITERATIONS.
    ------------------------------------------------

 NO OUTPUT CONTROL FOR STRESS PERIOD   36   TIME STEP   23
 
 SOLVING FOR HEAD 
                                                   Max.-Head-Change                         Max.-Flux-Residual
  Residual-Control   Outer-Iter.   Inner-Iter.     Column Row Layer    Maximum-Head-Change  Column Row Layer    Maximum-Flux-Residual          L2-NORM 
          0                 1           2             4    7     1       0.6445171621E-02       4    7    1         0.3386108796E+00      0.7864782767E+00
          0                 2           2             4    7     1      -0.6269404321E-03       4    7    1        -0.3386115473E-01      0.7864098626E-01
          0                 3           1             4    7     1       0.4269231072E-04       4    7    1         0.2370281220E-02      0.5504260767E-02

    ------------------------------------------------
       NWT REQUIRED            3 OUTER ITERATIONS 
       AND A TOTAL OF          5 INNER ITERATIONS.
    ------------------------------------------------

 NO OUTPUT CONTROL FOR STRESS PERIOD   36   TIME STEP   24
 
 SOLVING FOR HEAD 
                                                   Max.-Head-Change                         Max.-Flux-Residual
  Residual-Control   Outer-Iter.   Inner-Iter.     Column Row Layer    Maximum-Head-Change  Column Row Layer    Maximum-Flux-Residual          L2-NORM 
          0                 1           2             4    7     1       0.6374721440E-02       4    7    1         0.3348849434E+00      0.7802784286E+00
          0                 2           2             4    7     1      -0.6200875244E-03       4    7    1        -0.3348855934E-01      0.7802142393E-01
          0                 3           1             4    7     1       0.4222565304E-04       4    7    1         0.2344199538E-02      0.5460972385E-02

    ------------------------------------------------
       NWT REQUIRED            3 OUTER ITERATIONS 
       AND A TOTAL OF          5 INNER ITERATIONS.
    ------------------------------------------------

 NO OUTPUT CONTROL FOR STRESS PERIOD   36   TIME STEP   25
 
 SOLVING FOR HEAD 
                                                   Max.-Head-Change                         Max.-Flux-Residual
  Residual-Control   Outer-Iter.   Inner-Iter.     Column Row Layer    Maximum-Head-Change  Column Row Layer    Maximum-Flux-Residual          L2-NORM 
          0                 1           2             4    7     1       0.6305379677E-02       4    7    1         0.3312174195E+00      0.7741964787E+00
          0                 2           2             4    7     1      -0.6133424357E-03       4    7    1        -0.3312180517E-01      0.7741422754E-01
          0                 3           1             4    7     1       0.4176633862E-04       4    7    1         0.2318526775E-02      0.5418527886E-02

    ------------------------------------------------
       NWT REQUIRED            3 OUTER ITERATIONS 
       AND A TOTAL OF          5 INNER ITERATIONS.
    ------------------------------------------------

 NO OUTPUT CONTROL FOR STRESS PERIOD   36   TIME STEP   26
 
 SOLVING FOR HEAD 
                                                   Max.-Head-Change                         Max.-Flux-Residual
  Residual-Control   Outer-Iter.   Inner-Iter.     Column Row Layer    Maximum-Head-Change  Column Row Layer    Maximum-Flux-Residual          L2-NORM 
          0                 1           2             4    7     1       0.6237388787E-02       4    7    1         0.3276221292E+00      0.7682217881E+00
          0                 2           2             4    7     1      -0.6067287513E-03       4    7    1        -0.3276227447E-01      0.7681733386E-01
          0                 3           1             4    7     1       0.4131597092E-04       4    7    1         0.2293359619E-02      0.5376784499E-02

    ------------------------------------------------
       NWT REQUIRED            3 OUTER ITERATIONS 
       AND A TOTAL OF          5 INNER ITERATIONS.
    ------------------------------------------------

 NO OUTPUT CONTROL FOR STRESS PERIOD   36   TIME STEP   27
 
 SOLVING FOR HEAD 
                                                   Max.-Head-Change                         Max.-Flux-Residual
  Residual-Control   Outer-Iter.   Inner-Iter.     Column Row Layer    Maximum-Head-Change  Column Row Layer    Maximum-Flux-Residual          L2-NORM 
          0                 1           2             4    7     1       0.6170715947E-02       4    7    1         0.3240968799E+00      0.7623661160E+00
          0                 2           2             4    7     1      -0.6002432779E-03       4    7    1        -0.3240974790E-01      0.7623233326E-01
          0                 3           1             4    7     1       0.4087433457E-04       4    7    1         0.2268682763E-02      0.5335870591E-02

    ------------------------------------------------
       NWT REQUIRED            3 OUTER ITERATIONS 
       AND A TOTAL OF          5 INNER ITERATIONS.
    ------------------------------------------------

 NO OUTPUT CONTROL FOR STRESS PERIOD   36   TIME STEP   28
 
 SOLVING FOR HEAD 
                                                   Max.-Head-Change                         Max.-Flux-Residual
  Residual-Control   Outer-Iter.   Inner-Iter.     Column Row Layer    Maximum-Head-Change  Column Row Layer    Maximum-Flux-Residual          L2-NORM 
          0                 1           2             4    7     1       0.6105054384E-02       4    7    1         0.3206252058E+00      0.7566170562E+00
          0                 2           2             4    7     1      -0.5938561757E-03       4    7    1        -0.3206257893E-01      0.7565789507E-01
          0                 3           1             4    7     1       0.4043939702E-04       4    7    1         0.2244380963E-02      0.5295666146E-02

    ------------------------------------------------
       NWT REQUIRED            3 OUTER ITERATIONS 
       AND A TOTAL OF          5 INNER ITERATIONS.
    ------------------------------------------------

 NO OUTPUT CONTROL FOR STRESS PERIOD   36   TIME STEP   29
 
 SOLVING FOR HEAD 
                                                   Max.-Head-Change                         Max.-Flux-Residual
  Residual-Control   Outer-Iter.   Inner-Iter.     Column Row Layer    Maximum-Head-Change  Column Row Layer    Maximum-Flux-Residual          L2-NORM 
          0                 1           2             4    7     1       0.6040385513E-02       4    7    1         0.3172059649E+00      0.7509584452E+00
          0                 2           2             4    7     1      -0.5875656349E-03       4    7    1        -0.3172065330E-01      0.7509235754E-01
          0                 3           1             4    7     1       0.4001103450E-04       4    7    1         0.2220446147E-02      0.5256154906E-02

    ------------------------------------------------
       NWT REQUIRED            3 OUTER ITERATIONS 
       AND A TOTAL OF          5 INNER ITERATIONS.
    ------------------------------------------------

 NO OUTPUT CONTROL FOR STRESS PERIOD   36   TIME STEP   30



 STREAM LISTING     PERIOD     36   STEP       30

 LAYER ROW COL. STREAM  RCH.  FLOW INTO     FLOW TO   FLOW OUT OF   OVRLND.     DIRECT     STREAM       STREAM     STREAM     STREAM   STREAMBED  STREAMBED
                SEG.NO.  NO.  STRM. RCH.    AQUIFER    STRM. RCH.    RUNOFF     PRECIP       ET          HEAD       DEPTH      WIDTH   CONDCTNC.   GRADIENT

   1    1    1     1     1    1.9499E+01  2.1750E-01   1.9282E+01  0.000E+00  0.000E+00  0.000E+00  1.09414E+03  1.090E+00  1.182E+01  5.318E-02  1.363E+00
   1    2    2     1     2    1.9282E+01  3.3555E-01   1.8946E+01  0.000E+00  0.000E+00  0.000E+00  1.08914E+03  1.086E+00  1.173E+01  8.213E-02  1.362E+00
   1    3    3     1     3    1.8946E+01  2.8492E-01   1.8661E+01  0.000E+00  0.000E+00  0.000E+00  1.08350E+03  1.081E+00  1.164E+01  6.982E-02  1.360E+00
   1    3    4     1     4    1.8661E+01  2.6135E-01   1.8400E+01  0.000E+00  0.000E+00  0.000E+00  1.07848E+03  1.076E+00  1.155E+01  6.412E-02  1.359E+00
   1    4    5     2     1    1.6400E+01  3.0673E-01   1.6093E+01  0.000E+00  0.000E+00  0.000E+00  1.07287E+03  9.324E-01  1.200E+01  7.800E-02  1.311E+00
   1    5    6     2     2    1.6093E+01  2.3538E-01   1.5858E+01  0.000E+00  0.000E+00  0.000E+00  1.06743E+03  9.230E-01  1.200E+01  6.000E-02  1.308E+00
   1    6    6     2     3    1.5858E+01  2.3489E-01   1.5623E+01  0.000E+00  0.000E+00  0.000E+00  1.06271E+03  9.149E-01  1.200E+01  6.000E-02  1.305E+00
   1    7    6     2     4    1.5623E+01  2.3440E-01   1.5389E+01  0.000E+00  0.000E+00  0.000E+00  1.05798E+03  9.067E-01  1.200E+01  6.000E-02  1.302E+00
   1    8    6     2     5    1.5389E+01  2.3390E-01   1.5155E+01  0.000E+00  0.000E+00  0.000E+00  1.05326E+03  8.984E-01  1.200E+01  6.000E-02  1.299E+00
   1    3    5     3     1    2.0000E+00  2.8252E-01   1.7175E+00  0.000E+00  0.000E+00  0.000E+00  1.07555E+03  1.909E+00  9.636E+00  7.227E-02  1.955E+00
   1    3    6     3     2    1.7175E+00  2.4905E-01   1.4684E+00  0.000E+00  0.000E+00  0.000E+00  1.07264E+03  1.727E+00  8.909E+00  6.682E-02  1.864E+00
   1    3    7     3     3    1.4684E+00  1.9718E-01   1.2712E+00  0.000E+00  0.000E+00  0.000E+00  1.06987E+03  1.555E+00  8.218E+00  5.547E-02  1.777E+00
   1    4    8     3     4    1.2712E+00  2.2567E-01   1.0456E+00  0.000E+00  0.000E+00  0.000E+00  1.06682E+03  1.364E+00  7.455E+00  6.709E-02  1.682E+00
   1    5    8     3     5    1.0456E+00  1.5790E-01   8.8768E-01  0.000E+00  0.000E+00  0.000E+00  1.06362E+03  1.164E+00  6.655E+00  4.991E-02  1.582E+00
   1    6    8     3     6    8.8768E-01  5.5980E-02   8.3170E-01  0.000E+00  0.000E+00  0.000E+00  1.06158E+03  1.036E+00  6.145E+00  1.844E-02  1.518E+00
   1    5   10     4     1    1.0000E+01  9.0919E-02   9.9091E+00  0.000E+00  0.000E+00  0.000E+00  1.07836E+03  6.368E-01  1.000E+01  2.500E-02  1.212E+00
   1    5    9     4     2    9.9091E+00  1.8158E-01   9.7275E+00  0.000E+00  0.000E+00  0.000E+00  1.07154E+03  6.315E-01  1.000E+01  5.000E-02  1.211E+00
   1    6    8     4     3    9.7275E+00  1.2689E-01   9.6006E+00  0.000E+00  0.000E+00  0.000E+00  1.06381E+03  6.256E-01  1.000E+01  3.500E-02  1.209E+00
   1    6    8     5     1    1.0432E+01  2.2686E-01   1.0205E+01  0.000E+00  0.000E+00  0.000E+00  1.05868E+03  6.790E-01  1.542E+01  6.166E-02  1.226E+00
   1    7    7     5     2    1.0205E+01  2.7894E-01   9.9265E+00  0.000E+00  0.000E+00  0.000E+00  1.05417E+03  6.732E-01  1.519E+01  7.594E-02  1.224E+00
   1    8    7     5     3    9.9265E+00  1.9221E-01   9.7343E+00  0.000E+00  0.000E+00  0.000E+00  1.04992E+03  6.676E-01  1.497E+01  5.241E-02  1.223E+00
   1    8    6     5     4    9.7343E+00  1.3577E-01   9.5985E+00  0.000E+00  0.000E+00  0.000E+00  1.04691E+03  6.637E-01  1.482E+01  3.706E-02  1.221E+00
   1    9    6     6     1    2.4753E+01  2.5261E-01   2.4501E+01  0.000E+00  0.000E+00  0.000E+00  1.04394E+03  1.210E+00  1.200E+01  6.000E-02  1.403E+00
   1   10    7     6     2    2.4501E+01  2.5216E-01   2.4249E+01  0.000E+00  0.000E+00  0.000E+00  1.03938E+03  1.203E+00  1.200E+01  6.000E-02  1.401E+00
   1   11    7     6     3    2.4249E+01  2.5171E-01   2.3997E+01  0.000E+00  0.000E+00  0.000E+00  1.03483E+03  1.195E+00  1.200E+01  6.000E-02  1.398E+00
   1   12    7     6     4    2.3997E+01  2.5126E-01   2.3746E+01  0.000E+00  0.000E+00  0.000E+00  1.03028E+03  1.188E+00  1.200E+01  6.000E-02  1.396E+00
   1   13    7     6     5    2.3746E+01  2.6683E-03   2.3743E+01  0.000E+00  0.000E+00  0.000E+00  1.02709E+03  1.184E+00  1.200E+01  2.400E-02  3.706E-02
   1   14    9     7     1    1.5000E+02  1.3440E+00   1.4866E+02  0.000E+00  0.000E+00  0.000E+00  1.03987E+03  2.288E+00  5.529E+01  5.593E-01  8.010E-01
   1   13    8     7     2    1.4866E+02  1.8638E+00   1.4679E+02  0.000E+00  0.000E+00  0.000E+00  1.03478E+03  2.279E+00  5.526E+01  6.148E-01  1.011E+00
   1   13    7     7     3    1.4679E+02  1.5121E+00   1.4528E+02  0.000E+00  0.000E+00  0.000E+00  1.02969E+03  2.270E+00  5.522E+01  5.584E-01  9.026E-01
   1   13    6     8     1    1.6902E+02  9.5284E-01   1.6807E+02  0.000E+00  0.000E+00  0.000E+00  1.02482E+03  2.943E+00  4.267E+01  4.348E-01  7.305E-01
   1   13    5     8     2    1.6807E+02  1.9997E-01   1.6787E+02  0.000E+00  0.000E+00  0.000E+00  1.01856E+03  2.939E+00  4.261E+01  4.343E-01  1.535E-01
   1   13    4     8     3    1.6787E+02 -2.3679E+00   1.7024E+02  0.000E+00  0.000E+00  0.000E+00  1.01232E+03  2.946E+00  4.272E+01  4.353E+00 -1.813E-01
   1   13    3     8     4    1.7024E+02 -3.6135E+00   1.7385E+02  0.000E+00  0.000E+00  0.000E+00  1.00609E+03  2.965E+00  4.300E+01  4.382E+00 -2.749E-01
   1   13    2     8     5    1.7385E+02 -2.5739E+00   1.7643E+02  0.000E+00  0.000E+00  0.000E+00  9.99860E+02  2.985E+00  4.329E+01  4.411E+00 -1.945E-01
   1   13    1     8     6    1.7643E+02 -1.9899E+00   1.7842E+02  0.000E+00  0.000E+00  0.000E+00  9.94875E+02  3.000E+00  4.350E+01  2.660E+00 -2.494E-01
   1    8    6     9     1    0.0000E+00  0.0000E+00   0.0000E+00  0.000E+00  0.000E+00  0.000E+00  1.07875E+03  0.000E+00  4.000E+00  0.000E+00  1.000E+00
   1    8    5     9     2    0.0000E+00  0.0000E+00   0.0000E+00  0.000E+00  0.000E+00  0.000E+00  1.07825E+03  0.000E+00  4.000E+00  0.000E+00  1.000E+00





UNSATURATED ZONE PACKAGE VOLUMETRIC BUDGET FOR  TIME STEP    30 STRESS PERIOD   36
  ------------------------------------------------------------------------------



     CUMULATIVE VOLUMES      L**3       RATES FOR THIS TIME STEP      L**3/T
     ------------------                 ------------------------

           IN:                                      IN:
           ---                                      ---
        INFILTRATION =  1423179680.0839          INFILTRATION =           0.8475

          OUT:                                     OUT:
          ----                                     ----
              UZF ET =  1283127347.7115                UZF ET =           0.7500
        UZF RECHARGE =       73224.0000          UZF RECHARGE =       0.0000E+00

            IN - OUT =   139979108.3724              IN - OUT =       9.7500E-02

          STORAGE:                                 STORAGE:
          --------                                 --------
      STORAGE CHANGE =   139980465.0490        STORAGE CHANGE =       9.7500E-02

 PERCENT DISCREPANCY IS DIFFERENCE BETWEEN IN-OUT MINUS CHANGE IN STORAGE
 DIVIDED BY THE AVERAGE OF IN AND OUT TIMES 100

 PERCENT DISCREPANCY =          -0.00     PERCENT DISCREPANCY =           0.00






1
  VOLUMETRIC BUDGET FOR AGRICULTURAL FIELDS AT  END OF TIME STEP   30, STRESS PERIOD  36
  ------------------------------------------------------------------------------

     CUMULATIVE VOLUMES      L**3       RATES FOR THIS TIME STEP      L**3/T
     ------------------                 ------------------------

           IN:                                      IN:
           ---                                      ---
               AG WELLS  =   381194528.0000                 AG WELLS  =           0.0000
      DIVERSION SEGMENTS =   963956736.0000        DIVERSION SEGMENTS =           0.0000
       IRRIGATION PONDS  =           0.0000         IRRIGATION PONDS  =           0.0000
           GW IRRIGATION =           0.0000             GW IRRIGATION =           0.0000
           SW IRRIGATION =           0.0000             SW IRRIGATION =           0.0000
        SYSTEM LOSSES GW =           0.0000          SYSTEM LOSSES GW =           0.0000
        SYSTEM LOSSES SW =           0.0000          SYSTEM LOSSES SW =           0.0000

                TOTAL IN =  1345151232.0000                  TOTAL IN =           0.0000

          OUT:                                     OUT:
          ----                                     ----
               AG WELLS  =           0.0000                 AG WELLS  =           0.0000
      DIVERSION SEGMENTS =           0.0000        DIVERSION SEGMENTS =           0.0000
       IRRIGATION PONDS  =           0.0000         IRRIGATION PONDS  =           0.0000
           GW IRRIGATION =   381194528.0000             GW IRRIGATION =           0.0000
           SW IRRIGATION =   963976704.0000             SW IRRIGATION =           0.0000
        SYSTEM LOSSES GW =           0.0000          SYSTEM LOSSES GW =           0.0000
        SYSTEM LOSSES SW =           0.0000          SYSTEM LOSSES SW =           0.0000

               TOTAL OUT =  1345171200.0000                 TOTAL OUT =           0.0000

                IN - OUT =      -19968.0000                  IN - OUT =           0.0000

     PERCENT DISCREPANCY =          -0.00         PERCENT DISCREPANCY =           0.00



1
  VOLUMETRIC BUDGET FOR ENTIRE MODEL AT END OF TIME STEP   30, STRESS PERIOD  36
  ------------------------------------------------------------------------------

     CUMULATIVE VOLUMES      L**3       RATES FOR THIS TIME STEP      L**3/T
     ------------------                 ------------------------

           IN:                                      IN:
           ---                                      ---
             STORAGE     =   659080512.0000               STORAGE     =           1.7326
       CONSTANT HEAD     =           0.0000         CONSTANT HEAD     =           0.0000
     HEAD DEP BOUNDS     =    26337360.0000       HEAD DEP BOUNDS     =           0.2863
      STREAM LEAKAGE     =  1103315328.0000        STREAM LEAKAGE     =          11.6291
        UZF RECHARGE     =       73223.9531          UZF RECHARGE     =           0.0000
               GW ET     =           0.0000                 GW ET     =           0.0000
     SURFACE LEAKAGE     =           0.0000       SURFACE LEAKAGE     =           0.0000
           AG WELLS      =           0.0000             AG WELLS      =           0.0000

                TOTAL IN =  1788806400.0000                  TOTAL IN =          13.6481

          OUT:                                     OUT:
          ----                                     ----
             STORAGE     =   386760928.0000               STORAGE     =           2.8134
       CONSTANT HEAD     =           0.0000         CONSTANT HEAD     =           0.0000
     HEAD DEP BOUNDS     =    26782872.0000       HEAD DEP BOUNDS     =           0.2897
      STREAM LEAKAGE     =   991089152.0000        STREAM LEAKAGE     =          10.5453
        UZF RECHARGE     =           0.0000          UZF RECHARGE     =           0.0000
               GW ET     =     2982784.2500                 GW ET     =           0.0000
     SURFACE LEAKAGE     =           0.0000       SURFACE LEAKAGE     =           0.0000
           AG WELLS      =   381194528.0000             AG WELLS      =           0.0000

               TOTAL OUT =  1788810240.0000                 TOTAL OUT =          13.6484

                IN - OUT =       -3840.0000                  IN - OUT =      -3.0518E-04

     PERCENT DISCREPANCY =          -0.00         PERCENT DISCREPANCY =          -0.00






         TIME SUMMARY AT END OF TIME STEP   30 IN STRESS PERIOD   36
                    SECONDS     MINUTES      HOURS       DAYS        YEARS
                    -----------------------------------------------------------
   TIME STEP LENGTH  87667.      1461.1      24.352      1.0147     2.77799E-03
 STRESS PERIOD TIME 2.63000E+06  43833.      730.56      30.440     8.33397E-02
         TOTAL TIME 9.21360E+07 1.53560E+06  25593.      1066.4      2.9196    
1
1
                            STRESS PERIOD NO.   37, LENGTH =   2630000.    
                            -----------------------------------------------

                              NUMBER OF TIME STEPS =    30

                               MULTIPLIER FOR DELT =     1.000

                            INITIAL TIME STEP SIZE =   87666.66    

 REUSING NON-PARAMETER GHB CELLS FROM LAST STRESS PERIOD

      2 GHB CELLS

 REUSING STREAM SEGMENT DATA FROM LAST STRESS PERIOD



            AREAL INFILTRATION RATE
 READING ON UNIT   19 WITH FORMAT: (FREE)              

            1           2           3           4           5           6           7           8           9          10
 ........................................................................................................................
   1   1.0000E-10  2.0000E-10   0.000       0.000       0.000       0.000       0.000       0.000       0.000       0.000    
   2   2.0000E-10  1.0000E-10  2.0000E-10   0.000       0.000      8.0000E-10  8.0000E-10  5.0000E-10   0.000       0.000    
   3    0.000      5.0000E-10  1.0000E-10  1.0000E-10  8.0000E-10  8.0000E-10  5.0000E-10  5.0000E-10   0.000       0.000    
   4   8.0000E-10  5.0000E-10  1.0000E-10  1.0000E-10  1.0000E-10  1.0000E-10  1.0000E-10  1.0000E-10  2.0000E-10   0.000    
   5   8.0000E-10  5.0000E-10  1.0000E-10  1.0000E-10  1.0000E-10  1.0000E-10  1.0000E-10  1.0000E-10  1.0000E-10  1.0000E-10
   6   8.0000E-10  5.0000E-10  5.0000E-10  2.0000E-10  2.0000E-10  1.0000E-10  1.0000E-10  1.0000E-10  1.0000E-10  5.0000E-10
   7   8.0000E-10  5.0000E-10  5.0000E-10  2.0000E-10  2.0000E-10  1.0000E-10  1.0000E-10  2.0000E-10  2.0000E-10   0.000    
   8    0.000      5.0000E-10  5.0000E-10  2.0000E-10  2.0000E-10  1.0000E-10  1.0000E-10  2.0000E-10  5.0000E-10   0.000    
   9    0.000      5.0000E-10  5.0000E-10  2.0000E-10  2.0000E-10  1.0000E-10  1.0000E-10  2.0000E-10  5.0000E-10   0.000    
  10    0.000      5.0000E-10  5.0000E-10  2.0000E-10  2.0000E-10  1.0000E-10  1.0000E-10  2.0000E-10  5.0000E-10  8.0000E-10
  11    0.000      1.0000E-10  1.0000E-10  1.0000E-10  1.0000E-10  1.0000E-10  1.0000E-10  2.0000E-10  5.0000E-10   0.000    
  12   1.0000E-10  1.0000E-10  1.0000E-10  1.0000E-10  1.0000E-10  1.0000E-10  1.0000E-10  1.0000E-10  2.0000E-10   0.000    
  13   1.0000E-10  1.0000E-10  2.0000E-10  2.0000E-10  2.0000E-10  2.0000E-10  2.0000E-10  1.0000E-10  1.0000E-10   0.000    
  14    0.000      2.0000E-10  5.0000E-10  5.0000E-10  5.0000E-10  5.0000E-10  5.0000E-10  2.0000E-10  1.0000E-10   0.000    
  15    0.000       0.000      8.0000E-10  8.0000E-10  8.0000E-10  8.0000E-10   0.000       0.000       0.000       0.000    

                  ET RATE =  5.000000E-10

 USING ET EXTINCTION DEPTH FROM PREVIOUS STRESS PERIOD. CURRENT PERIOD IS:      37

 USING EXTINCTION WATER CONTENT FROM PREVIOUS STRESS PERIOD. CURRENT PERIOD IS:      37

 USING AIR ENTRY PRESSURE FROM PREVIOUS STRESS PERIOD. CURRENT PERIOD IS:      37

 USING ROOT PRESSURE HEAD FROM PREVIOUS STRESS PERIOD. CURRENT PERIOD IS:      37

 USING ROOT ACTIVITY FROM PREVIOUS STRESS PERIOD. CURRENT PERIOD IS:      37

 PROCESSING AG STRESS PERIOD DATA

 READING AG STRESS PERIOD DATA

 READING IRRIGATION SEGMENT

 READING IRRIGATION WELL

 READING SUPPLEMENTAL WELL

 NO IRRPOND OR REUSING IRRPOND DATA FROM LAST STRESS PERIOD

 END PROCESSING AG STRESS PERIOD DATA OPTIONS
 
 SOLVING FOR HEAD 
                                                   Max.-Head-Change                         Max.-Flux-Residual
  Residual-Control   Outer-Iter.   Inner-Iter.     Column Row Layer    Maximum-Head-Change  Column Row Layer    Maximum-Flux-Residual          L2-NORM 
          0                 1           2             4    7     1       0.5976959282E-02       4    7    1         0.3138529581E+00      0.7478172515E+00
          0                 2           2             4    7     1      -0.5813959707E-03       4    7    1        -0.3138535115E-01      0.7477193443E-01
          0                 3           1             4    7     1       0.3959090370E-04       4    7    1         0.2196975013E-02      0.5233276018E-02

    ------------------------------------------------
       NWT REQUIRED            3 OUTER ITERATIONS 
       AND A TOTAL OF          5 INNER ITERATIONS.
    ------------------------------------------------

 NO OUTPUT CONTROL FOR STRESS PERIOD   37   TIME STEP    1
 
 SOLVING FOR HEAD 
                                                   Max.-Head-Change                         Max.-Flux-Residual
  Residual-Control   Outer-Iter.   Inner-Iter.     Column Row Layer    Maximum-Head-Change  Column Row Layer    Maximum-Flux-Residual          L2-NORM 
          0                 1           2             4    7     1       0.5914722012E-02       4    7    1         0.3105643807E+00      0.7525909601E+00
          0                 2           2             4    7     1      -0.5753419602E-03       4    7    1        -0.3105649196E-01      0.7521633779E-01
          0                 3           1             4    7     1       0.3917864797E-04       4    7    1         0.2173954881E-02      0.5261457638E-02

    ------------------------------------------------
       NWT REQUIRED            3 OUTER ITERATIONS 
       AND A TOTAL OF          5 INNER ITERATIONS.
    ------------------------------------------------

 NO OUTPUT CONTROL FOR STRESS PERIOD   37   TIME STEP    2
 
 SOLVING FOR HEAD 
                                                   Max.-Head-Change                         Max.-Flux-Residual
  Residual-Control   Outer-Iter.   Inner-Iter.     Column Row Layer    Maximum-Head-Change  Column Row Layer    Maximum-Flux-Residual          L2-NORM 
          0                 1           2             4    7     1       0.5853377749E-02       4    7    1         0.3073226842E+00      0.7461731166E+00
          0                 2           2             4    7     1      -0.5693748156E-03       4    7    1        -0.3073232092E-01      0.7458012313E-01
          0                 3           1             4    7     1       0.3877230789E-04       4    7    1         0.2151262897E-02      0.5217193095E-02

    ------------------------------------------------
       NWT REQUIRED            3 OUTER ITERATIONS 
       AND A TOTAL OF          5 INNER ITERATIONS.
    ------------------------------------------------

 NO OUTPUT CONTROL FOR STRESS PERIOD   37   TIME STEP    3
 
 SOLVING FOR HEAD 
                                                   Max.-Head-Change                         Max.-Flux-Residual
  Residual-Control   Outer-Iter.   Inner-Iter.     Column Row Layer    Maximum-Head-Change  Column Row Layer    Maximum-Flux-Residual          L2-NORM 
          0                 1           2             4    7     1       0.5792910011E-02       4    7    1         0.3041272889E+00      0.7399752409E+00
          0                 2           2             4    7     1      -0.5634929339E-03       4    7    1        -0.3041278005E-01      0.7396503628E-01
          0                 3           1             4    7     1       0.3837177364E-04       4    7    1         0.2128895047E-02      0.5174550600E-02

    ------------------------------------------------
       NWT REQUIRED            3 OUTER ITERATIONS 
       AND A TOTAL OF          5 INNER ITERATIONS.
    ------------------------------------------------

 NO OUTPUT CONTROL FOR STRESS PERIOD   37   TIME STEP    4
 
 SOLVING FOR HEAD 
                                                   Max.-Head-Change                         Max.-Flux-Residual
  Residual-Control   Outer-Iter.   Inner-Iter.     Column Row Layer    Maximum-Head-Change  Column Row Layer    Maximum-Flux-Residual          L2-NORM 
          0                 1           2             4    7     1       0.5733574594E-02       4    7    1         0.3009921052E+00      0.7339792065E+00
          0                 2           2             4    7     1      -0.5577211970E-03       4    7    1        -0.3009926041E-01      0.7336934758E-01
          0                 3           1             4    7     1       0.3797874028E-04       4    7    1         0.2106948684E-02      0.5133308965E-02

    ------------------------------------------------
       NWT REQUIRED            3 OUTER ITERATIONS 
       AND A TOTAL OF          5 INNER ITERATIONS.
    ------------------------------------------------

 NO OUTPUT CONTROL FOR STRESS PERIOD   37   TIME STEP    5
 
 SOLVING FOR HEAD 
                                                   Max.-Head-Change                         Max.-Flux-Residual
  Residual-Control   Outer-Iter.   Inner-Iter.     Column Row Layer    Maximum-Head-Change  Column Row Layer    Maximum-Flux-Residual          L2-NORM 
          0                 1           2             4    7     1       0.5675342845E-02       4    7    1         0.2979156312E+00      0.7281734720E+00
          0                 2           2             4    7     1      -0.5520568167E-03       4    7    1        -0.2979161173E-01      0.7279227678E-01
          0                 3           1             4    7     1       0.3759301681E-04       4    7    1         0.2085413265E-02      0.5094434279E-02

    ------------------------------------------------
       NWT REQUIRED            3 OUTER ITERATIONS 
       AND A TOTAL OF          5 INNER ITERATIONS.
    ------------------------------------------------

 NO OUTPUT CONTROL FOR STRESS PERIOD   37   TIME STEP    6
 
 SOLVING FOR HEAD 
                                                   Max.-Head-Change                         Max.-Flux-Residual
  Residual-Control   Outer-Iter.   Inner-Iter.     Column Row Layer    Maximum-Head-Change  Column Row Layer    Maximum-Flux-Residual          L2-NORM 
          0                 1           2             4    7     1       0.5617915284E-02       4    7    1         0.2948816153E+00      0.7225206649E+00
          0                 2           2             4    7     1      -0.5464706625E-03       4    7    1        -0.2948820890E-01      0.7223004759E-01
          0                 3           1             4    7     1       0.3721262062E-04       4    7    1         0.2064175061E-02      0.5054196388E-02

    ------------------------------------------------
       NWT REQUIRED            3 OUTER ITERATIONS 
       AND A TOTAL OF          5 INNER ITERATIONS.
    ------------------------------------------------

 NO OUTPUT CONTROL FOR STRESS PERIOD   37   TIME STEP    7
 
 SOLVING FOR HEAD 
                                                   Max.-Head-Change                         Max.-Flux-Residual
  Residual-Control   Outer-Iter.   Inner-Iter.     Column Row Layer    Maximum-Head-Change  Column Row Layer    Maximum-Flux-Residual          L2-NORM 
          0                 1           2             4    7     1       0.5561549427E-02       4    7    1         0.2919040612E+00      0.7170225552E+00
          0                 2           2             4    7     1      -0.5409877844E-03       4    7    1        -0.2919045231E-01      0.7168318849E-01
          0                 3           1             4    7     1       0.3683925693E-04       4    7    1         0.2043332107E-02      0.5016209730E-02

    ------------------------------------------------
       NWT REQUIRED            3 OUTER ITERATIONS 
       AND A TOTAL OF          5 INNER ITERATIONS.
    ------------------------------------------------

 NO OUTPUT CONTROL FOR STRESS PERIOD   37   TIME STEP    8
 
 SOLVING FOR HEAD 
                                                   Max.-Head-Change                         Max.-Flux-Residual
  Residual-Control   Outer-Iter.   Inner-Iter.     Column Row Layer    Maximum-Head-Change  Column Row Layer    Maximum-Flux-Residual          L2-NORM 
          0                 1           2             4    7     1       0.5506220651E-02       4    7    1         0.2889815552E+00      0.7116663766E+00
          0                 2           2             4    7     1      -0.5356057867E-03       4    7    1        -0.2889820057E-01      0.7114965348E-01
          0                 3           1             4    7     1       0.3647276293E-04       4    7    1         0.2022874489E-02      0.4979011932E-02

    ------------------------------------------------
       NWT REQUIRED            3 OUTER ITERATIONS 
       AND A TOTAL OF          5 INNER ITERATIONS.
    ------------------------------------------------

 NO OUTPUT CONTROL FOR STRESS PERIOD   37   TIME STEP    9
 
 SOLVING FOR HEAD 
                                                   Max.-Head-Change                         Max.-Flux-Residual
  Residual-Control   Outer-Iter.   Inner-Iter.     Column Row Layer    Maximum-Head-Change  Column Row Layer    Maximum-Flux-Residual          L2-NORM 
          0                 1           2             4    7     1       0.5451628168E-02       4    7    1         0.2860980544E+00      0.7064340790E+00
          0                 2           2             4    7     1      -0.5302954103E-03       4    7    1        -0.2860984938E-01      0.7062835756E-01
          0                 3           1             4    7     1       0.3611114629E-04       4    7    1         0.2002689916E-02      0.4942630440E-02

    ------------------------------------------------
       NWT REQUIRED            3 OUTER ITERATIONS 
       AND A TOTAL OF          5 INNER ITERATIONS.
    ------------------------------------------------

 NO OUTPUT CONTROL FOR STRESS PERIOD   37   TIME STEP   10
 
 SOLVING FOR HEAD 
                                                   Max.-Head-Change                         Max.-Flux-Residual
  Residual-Control   Outer-Iter.   Inner-Iter.     Column Row Layer    Maximum-Head-Change  Column Row Layer    Maximum-Flux-Residual          L2-NORM 
          0                 1           2             4    7     1       0.5397763864E-02       4    7    1         0.2832527292E+00      0.7013208054E+00
          0                 2           2             4    7     1      -0.5250558661E-03       4    7    1        -0.2832531577E-01      0.7011874028E-01
          0                 3           1             4    7     1       0.3575435281E-04       4    7    1         0.1982772549E-02      0.4907026129E-02

    ------------------------------------------------
       NWT REQUIRED            3 OUTER ITERATIONS 
       AND A TOTAL OF          5 INNER ITERATIONS.
    ------------------------------------------------

 NO OUTPUT CONTROL FOR STRESS PERIOD   37   TIME STEP   11
 
 SOLVING FOR HEAD 
                                                   Max.-Head-Change                         Max.-Flux-Residual
  Residual-Control   Outer-Iter.   Inner-Iter.     Column Row Layer    Maximum-Head-Change  Column Row Layer    Maximum-Flux-Residual          L2-NORM 
          0                 1           2             4    7     1       0.5345152562E-02       4    7    1         0.2804746922E+00      0.6963183223E+00
          0                 2           2             4    7     1      -0.5199382054E-03       4    7    1        -0.2804751103E-01      0.6962000779E-01
          0                 3           1             4    7     1       0.3540585875E-04       4    7    1         0.1963326206E-02      0.4872345222E-02

    ------------------------------------------------
       NWT REQUIRED            3 OUTER ITERATIONS 
       AND A TOTAL OF          5 INNER ITERATIONS.
    ------------------------------------------------

 NO OUTPUT CONTROL FOR STRESS PERIOD   37   TIME STEP   12
 
 SOLVING FOR HEAD 
                                                   Max.-Head-Change                         Max.-Flux-Residual
  Residual-Control   Outer-Iter.   Inner-Iter.     Column Row Layer    Maximum-Head-Change  Column Row Layer    Maximum-Flux-Residual          L2-NORM 
          0                 1           2             4    7     1       0.5292950288E-02       4    7    1         0.2777173218E+00      0.6914161493E+00
          0                 2           2             4    7     1      -0.5148603326E-03       4    7    1        -0.2777177296E-01      0.6913121287E-01
          0                 3           1             4    7     1       0.3506007484E-04       4    7    1         0.1944024555E-02      0.4838211211E-02

    ------------------------------------------------
       NWT REQUIRED            3 OUTER ITERATIONS 
       AND A TOTAL OF          5 INNER ITERATIONS.
    ------------------------------------------------

 NO OUTPUT CONTROL FOR STRESS PERIOD   37   TIME STEP   13
 
 SOLVING FOR HEAD 
                                                   Max.-Head-Change                         Max.-Flux-Residual
  Residual-Control   Outer-Iter.   Inner-Iter.     Column Row Layer    Maximum-Head-Change  Column Row Layer    Maximum-Flux-Residual          L2-NORM 
          0                 1           2             4    7     1       0.5241966591E-02       4    7    1         0.2750254593E+00      0.6866181746E+00
          0                 2           2             4    7     1      -0.5099009950E-03       4    7    1        -0.2750258573E-01      0.6865254442E-01
          0                 3           1             4    7     1       0.3472236291E-04       4    7    1         0.1925181467E-02      0.4804865662E-02

    ------------------------------------------------
       NWT REQUIRED            3 OUTER ITERATIONS 
       AND A TOTAL OF          5 INNER ITERATIONS.
    ------------------------------------------------

 NO OUTPUT CONTROL FOR STRESS PERIOD   37   TIME STEP   14
 
 SOLVING FOR HEAD 
                                                   Max.-Head-Change                         Max.-Flux-Residual
  Residual-Control   Outer-Iter.   Inner-Iter.     Column Row Layer    Maximum-Head-Change  Column Row Layer    Maximum-Flux-Residual          L2-NORM 
          0                 1           2             4    7     1       0.5191624420E-02       4    7    1         0.2723672446E+00      0.6818998756E+00
          0                 2           2             4    7     1      -0.5050040600E-03       4    7    1        -0.2723676329E-01      0.6818170324E-01
          0                 3           1             4    7     1       0.3438889998E-04       4    7    1         0.1906573886E-02      0.4771991877E-02

    ------------------------------------------------
       NWT REQUIRED            3 OUTER ITERATIONS 
       AND A TOTAL OF          5 INNER ITERATIONS.
    ------------------------------------------------

 NO OUTPUT CONTROL FOR STRESS PERIOD   37   TIME STEP   15
 
 SOLVING FOR HEAD 
                                                   Max.-Head-Change                         Max.-Flux-Residual
  Residual-Control   Outer-Iter.   Inner-Iter.     Column Row Layer    Maximum-Head-Change  Column Row Layer    Maximum-Flux-Residual          L2-NORM 
          0                 1           2             4    7     1       0.5142188716E-02       4    7    1         0.2697570593E+00      0.6772903112E+00
          0                 2           2             4    7     1      -0.5001953009E-03       4    7    1        -0.2697574386E-01      0.6772161420E-01
          0                 3           1             4    7     1       0.3406144168E-04       4    7    1         0.1888302537E-02      0.4739847727E-02

    ------------------------------------------------
       NWT REQUIRED            3 OUTER ITERATIONS 
       AND A TOTAL OF          5 INNER ITERATIONS.
    ------------------------------------------------

 NO OUTPUT CONTROL FOR STRESS PERIOD   37   TIME STEP   16
 
 SOLVING FOR HEAD 
                                                   Max.-Head-Change                         Max.-Flux-Residual
  Residual-Control   Outer-Iter.   Inner-Iter.     Column Row Layer    Maximum-Head-Change  Column Row Layer    Maximum-Flux-Residual          L2-NORM 
          0                 1           2             4    7     1       0.5093361822E-02       4    7    1         0.2671791059E+00      0.6727390371E+00
          0                 2           2             4    7     1      -0.4954457623E-03       4    7    1        -0.2671794763E-01      0.6726729023E-01
          0                 3           1             4    7     1       0.3373801534E-04       4    7    1         0.1870256790E-02      0.4708085977E-02

    ------------------------------------------------
       NWT REQUIRED            3 OUTER ITERATIONS 
       AND A TOTAL OF          5 INNER ITERATIONS.
    ------------------------------------------------

 NO OUTPUT CONTROL FOR STRESS PERIOD   37   TIME STEP   17
 
 SOLVING FOR HEAD 
                                                   Max.-Head-Change                         Max.-Flux-Residual
  Residual-Control   Outer-Iter.   Inner-Iter.     Column Row Layer    Maximum-Head-Change  Column Row Layer    Maximum-Flux-Residual          L2-NORM 
          0                 1           2             4    7     1       0.5045408221E-02       4    7    1         0.2646474859E+00      0.6682835224E+00
          0                 2           2             4    7     1      -0.4907811713E-03       4    7    1        -0.2646478473E-01      0.6682249283E-01
          0                 3           1             4    7     1       0.3342037402E-04       4    7    1         0.1852535387E-02      0.4677050356E-02

    ------------------------------------------------
       NWT REQUIRED            3 OUTER ITERATIONS 
       AND A TOTAL OF          5 INNER ITERATIONS.
    ------------------------------------------------

 NO OUTPUT CONTROL FOR STRESS PERIOD   37   TIME STEP   18
 
 SOLVING FOR HEAD 
                                                   Max.-Head-Change                         Max.-Flux-Residual
  Residual-Control   Outer-Iter.   Inner-Iter.     Column Row Layer    Maximum-Head-Change  Column Row Layer    Maximum-Flux-Residual          L2-NORM 
          0                 1           2             4    7     1       0.4998034659E-02       4    7    1         0.2621463774E+00      0.6638987526E+00
          0                 2           2             4    7     1      -0.4861730024E-03       4    7    1        -0.2621467299E-01      0.6638458058E-01
          0                 3           1             4    7     1       0.3310657508E-04       4    7    1         0.1835027563E-02      0.4646430519E-02

    ------------------------------------------------
       NWT REQUIRED            3 OUTER ITERATIONS 
       AND A TOTAL OF          5 INNER ITERATIONS.
    ------------------------------------------------

 NO OUTPUT CONTROL FOR STRESS PERIOD   37   TIME STEP   19
 
 SOLVING FOR HEAD 
                                                   Max.-Head-Change                         Max.-Flux-Residual
  Residual-Control   Outer-Iter.   Inner-Iter.     Column Row Layer    Maximum-Head-Change  Column Row Layer    Maximum-Flux-Residual          L2-NORM 
          0                 1           2             4    7     1       0.4951773293E-02       4    7    1         0.2597048787E+00      0.6595877105E+00
          0                 2           2             4    7     1      -0.4816730213E-03       4    7    1        -0.2597052232E-01      0.6595396772E-01
          0                 3           1             4    7     1       0.3280014307E-04       4    7    1         0.1817937027E-02      0.4616281262E-02

    ------------------------------------------------
       NWT REQUIRED            3 OUTER ITERATIONS 
       AND A TOTAL OF          5 INNER ITERATIONS.
    ------------------------------------------------

 NO OUTPUT CONTROL FOR STRESS PERIOD   37   TIME STEP   20
 
 SOLVING FOR HEAD 
                                                   Max.-Head-Change                         Max.-Flux-Residual
  Residual-Control   Outer-Iter.   Inner-Iter.     Column Row Layer    Maximum-Head-Change  Column Row Layer    Maximum-Flux-Residual          L2-NORM 
          0                 1           2             4    7     1       0.4906043494E-02       4    7    1         0.2572915102E+00      0.6553437050E+00
          0                 2           2             4    7     1      -0.4772247471E-03       4    7    1        -0.2572918467E-01      0.6553008081E-01
          0                 3           1             4    7     1       0.3249723252E-04       4    7    1         0.1801043395E-02      0.4586767393E-02

    ------------------------------------------------
       NWT REQUIRED            3 OUTER ITERATIONS 
       AND A TOTAL OF          5 INNER ITERATIONS.
    ------------------------------------------------

 NO OUTPUT CONTROL FOR STRESS PERIOD   37   TIME STEP   21
 
 SOLVING FOR HEAD 
                                                   Max.-Head-Change                         Max.-Flux-Residual
  Residual-Control   Outer-Iter.   Inner-Iter.     Column Row Layer    Maximum-Head-Change  Column Row Layer    Maximum-Flux-Residual          L2-NORM 
          0                 1           2             4    7     1       0.4860846198E-02       4    7    1         0.2549057026E+00      0.6511627314E+00
          0                 2           2             4    7     1      -0.4728282710E-03       4    7    1        -0.2549060312E-01      0.6511240388E-01
          0                 3           1             4    7     1       0.3219784888E-04       4    7    1         0.1784342692E-02      0.4557541212E-02

    ------------------------------------------------
       NWT REQUIRED            3 OUTER ITERATIONS 
       AND A TOTAL OF          5 INNER ITERATIONS.
    ------------------------------------------------

 NO OUTPUT CONTROL FOR STRESS PERIOD   37   TIME STEP   22
 
 SOLVING FOR HEAD 
                                                   Max.-Head-Change                         Max.-Flux-Residual
  Residual-Control   Outer-Iter.   Inner-Iter.     Column Row Layer    Maximum-Head-Change  Column Row Layer    Maximum-Flux-Residual          L2-NORM 
          0                 1           2             4    7     1       0.4816442601E-02       4    7    1         0.2525622728E+00      0.6470505037E+00
          0                 2           2             4    7     1      -0.4685090008E-03       4    7    1        -0.2525625940E-01      0.6470155875E-01
          0                 3           1             4    7     1       0.3190372246E-04       4    7    1         0.1767938609E-02      0.4528860740E-02

    ------------------------------------------------
       NWT REQUIRED            3 OUTER ITERATIONS 
       AND A TOTAL OF          5 INNER ITERATIONS.
    ------------------------------------------------

 NO OUTPUT CONTROL FOR STRESS PERIOD   37   TIME STEP   23
 
 SOLVING FOR HEAD 
                                                   Max.-Head-Change                         Max.-Flux-Residual
  Residual-Control   Outer-Iter.   Inner-Iter.     Column Row Layer    Maximum-Head-Change  Column Row Layer    Maximum-Flux-Residual          L2-NORM 
          0                 1           2             4    7     1       0.4772815617E-02       4    7    1         0.2502599953E+00      0.6430059778E+00
          0                 2           2             4    7     1      -0.4642652745E-03       4    7    1        -0.2502603092E-01      0.6429738602E-01
          0                 3           1             4    7     1       0.3161474085E-04       4    7    1         0.1751822650E-02      0.4500511269E-02

    ------------------------------------------------
       NWT REQUIRED            3 OUTER ITERATIONS 
       AND A TOTAL OF          5 INNER ITERATIONS.
    ------------------------------------------------

 NO OUTPUT CONTROL FOR STRESS PERIOD   37   TIME STEP   24
 
 SOLVING FOR HEAD 
                                                   Max.-Head-Change                         Max.-Flux-Residual
  Residual-Control   Outer-Iter.   Inner-Iter.     Column Row Layer    Maximum-Head-Change  Column Row Layer    Maximum-Flux-Residual          L2-NORM 
          0                 1           2             4    7     1       0.4729937499E-02       4    7    1         0.2479979844E+00      0.6390141583E+00
          0                 2           2             4    7     1      -0.4600943920E-03       4    7    1        -0.2479982911E-01      0.6389852277E-01
          0                 3           1             4    7     1       0.3133071920E-04       4    7    1         0.1735988509E-02      0.4472658331E-02

    ------------------------------------------------
       NWT REQUIRED            3 OUTER ITERATIONS 
       AND A TOTAL OF          5 INNER ITERATIONS.
    ------------------------------------------------

 NO OUTPUT CONTROL FOR STRESS PERIOD   37   TIME STEP   25
 
 SOLVING FOR HEAD 
                                                   Max.-Head-Change                         Max.-Flux-Residual
  Residual-Control   Outer-Iter.   Inner-Iter.     Column Row Layer    Maximum-Head-Change  Column Row Layer    Maximum-Flux-Residual          L2-NORM 
          0                 1           2             4    7     1       0.4687529950E-02       4    7    1         0.2457600324E+00      0.6350926737E+00
          0                 2           2             4    7     1      -0.4559775827E-03       4    7    1        -0.2457603322E-01      0.6351514778E-01
          0                 3           1             4    7     1       0.3105037947E-04       4    7    1         0.1720322779E-02      0.4445803853E-02

    ------------------------------------------------
       NWT REQUIRED            3 OUTER ITERATIONS 
       AND A TOTAL OF          5 INNER ITERATIONS.
    ------------------------------------------------

 NO OUTPUT CONTROL FOR STRESS PERIOD   37   TIME STEP   26
 
 SOLVING FOR HEAD 
                                                   Max.-Head-Change                         Max.-Flux-Residual
  Residual-Control   Outer-Iter.   Inner-Iter.     Column Row Layer    Maximum-Head-Change  Column Row Layer    Maximum-Flux-Residual          L2-NORM 
          0                 1           2             4    7     1       0.4645826385E-02       4    7    1         0.2435608066E+00      0.6312132837E+00
          0                 2           2             4    7     1      -0.4519126540E-03       4    7    1        -0.2435610995E-01      0.6311891429E-01
          0                 3           1             4    7     1       0.3077357327E-04       4    7    1         0.1704928154E-02      0.4418113639E-02

    ------------------------------------------------
       NWT REQUIRED            3 OUTER ITERATIONS 
       AND A TOTAL OF          5 INNER ITERATIONS.
    ------------------------------------------------

 NO OUTPUT CONTROL FOR STRESS PERIOD   37   TIME STEP   27
 
 SOLVING FOR HEAD 
                                                   Max.-Head-Change                         Max.-Flux-Residual
  Residual-Control   Outer-Iter.   Inner-Iter.     Column Row Layer    Maximum-Head-Change  Column Row Layer    Maximum-Flux-Residual          L2-NORM 
          0                 1           2             4    7     1       0.4604561309E-02       4    7    1         0.2413841943E+00      0.6273802869E+00
          0                 2           2             4    7     1      -0.4478986774E-03       4    7    1        -0.2413844808E-01      0.6273580084E-01
          0                 3           1             4    7     1       0.3050023624E-04       4    7    1         0.1689691811E-02      0.4391299072E-02

    ------------------------------------------------
       NWT REQUIRED            3 OUTER ITERATIONS 
       AND A TOTAL OF          5 INNER ITERATIONS.
    ------------------------------------------------

 NO OUTPUT CONTROL FOR STRESS PERIOD   37   TIME STEP   28
 
 SOLVING FOR HEAD 
                                                   Max.-Head-Change                         Max.-Flux-Residual
  Residual-Control   Outer-Iter.   Inner-Iter.     Column Row Layer    Maximum-Head-Change  Column Row Layer    Maximum-Flux-Residual          L2-NORM 
          0                 1           2             4    7     1       0.4564266640E-02       4    7    1         0.2392594144E+00      0.6236139863E+00
          0                 2           2             4    7     1      -0.4439790964E-03       4    7    1        -0.2392596947E-01      0.6235938116E-01
          0                 3           1             4    7     1       0.3023332772E-04       4    7    1         0.1674818334E-02      0.4364994285E-02

    ------------------------------------------------
       NWT REQUIRED            3 OUTER ITERATIONS 
       AND A TOTAL OF          5 INNER ITERATIONS.
    ------------------------------------------------

 NO OUTPUT CONTROL FOR STRESS PERIOD   37   TIME STEP   29
 
 SOLVING FOR HEAD 
                                                   Max.-Head-Change                         Max.-Flux-Residual
  Residual-Control   Outer-Iter.   Inner-Iter.     Column Row Layer    Maximum-Head-Change  Column Row Layer    Maximum-Flux-Residual          L2-NORM 
          0                 1           2             4    7     1       0.4524370822E-02       4    7    1         0.2371554104E+00      0.6198988212E+00
          0                 2           2             4    7     1      -0.4400983118E-03       4    7    1        -0.2371556846E-01      0.6198801962E-01
          0                 3           1             4    7     1       0.2996906047E-04       4    7    1         0.1660090252E-02      0.4338995087E-02

    ------------------------------------------------
       NWT REQUIRED            3 OUTER ITERATIONS 
       AND A TOTAL OF          5 INNER ITERATIONS.
    ------------------------------------------------

 NO OUTPUT CONTROL FOR STRESS PERIOD   37   TIME STEP   30



 STREAM LISTING     PERIOD     37   STEP       30

 LAYER ROW COL. STREAM  RCH.  FLOW INTO     FLOW TO   FLOW OUT OF   OVRLND.     DIRECT     STREAM       STREAM     STREAM     STREAM   STREAMBED  STREAMBED
                SEG.NO.  NO.  STRM. RCH.    AQUIFER    STRM. RCH.    RUNOFF     PRECIP       ET          HEAD       DEPTH      WIDTH   CONDCTNC.   GRADIENT

   1    1    1     1     1    1.7249E+01  2.0269E-01   1.7047E+01  0.000E+00  0.000E+00  0.000E+00  1.09410E+03  1.052E+00  1.112E+01  5.002E-02  1.351E+00
   1    2    2     1     2    1.7047E+01  3.1257E-01   1.6734E+01  0.000E+00  0.000E+00  0.000E+00  1.08911E+03  1.047E+00  1.103E+01  7.723E-02  1.349E+00
   1    3    3     1     3    1.6734E+01  2.6529E-01   1.6469E+01  0.000E+00  0.000E+00  0.000E+00  1.08346E+03  1.042E+00  1.094E+01  6.563E-02  1.347E+00
   1    3    4     1     4    1.6469E+01  2.4324E-01   1.6226E+01  0.000E+00  0.000E+00  0.000E+00  1.07845E+03  1.038E+00  1.085E+01  6.024E-02  1.346E+00
   1    4    5     2     1    1.4226E+01  3.0073E-01   1.3925E+01  0.000E+00  0.000E+00  0.000E+00  1.07279E+03  8.555E-01  1.200E+01  7.800E-02  1.285E+00
   1    5    6     2     2    1.3925E+01  2.3075E-01   1.3694E+01  0.000E+00  0.000E+00  0.000E+00  1.06736E+03  8.458E-01  1.200E+01  6.000E-02  1.282E+00
   1    6    6     2     3    1.3694E+01  2.3024E-01   1.3464E+01  0.000E+00  0.000E+00  0.000E+00  1.06263E+03  8.373E-01  1.200E+01  6.000E-02  1.279E+00
   1    7    6     2     4    1.3464E+01  2.2972E-01   1.3234E+01  0.000E+00  0.000E+00  0.000E+00  1.05790E+03  8.287E-01  1.200E+01  6.000E-02  1.276E+00
   1    8    6     2     5    1.3234E+01  2.2921E-01   1.3005E+01  0.000E+00  0.000E+00  0.000E+00  1.05318E+03  8.202E-01  1.200E+01  6.000E-02  1.273E+00
   1    3    5     3     1    2.0000E+00  2.8252E-01   1.7175E+00  0.000E+00  0.000E+00  0.000E+00  1.07555E+03  1.909E+00  9.636E+00  7.227E-02  1.955E+00
   1    3    6     3     2    1.7175E+00  2.4905E-01   1.4684E+00  0.000E+00  0.000E+00  0.000E+00  1.07264E+03  1.727E+00  8.909E+00  6.682E-02  1.864E+00
   1    3    7     3     3    1.4684E+00  1.9718E-01   1.2712E+00  0.000E+00  0.000E+00  0.000E+00  1.06987E+03  1.555E+00  8.218E+00  5.547E-02  1.777E+00
   1    4    8     3     4    1.2712E+00  2.2567E-01   1.0456E+00  0.000E+00  0.000E+00  0.000E+00  1.06682E+03  1.364E+00  7.455E+00  6.709E-02  1.682E+00
   1    5    8     3     5    1.0456E+00  1.5790E-01   8.8768E-01  0.000E+00  0.000E+00  0.000E+00  1.06362E+03  1.164E+00  6.655E+00  4.991E-02  1.582E+00
   1    6    8     3     6    8.8768E-01  5.5980E-02   8.3170E-01  0.000E+00  0.000E+00  0.000E+00  1.06158E+03  1.036E+00  6.145E+00  1.844E-02  1.518E+00
   1    5   10     4     1    1.0000E+01  9.0919E-02   9.9091E+00  0.000E+00  0.000E+00  0.000E+00  1.07836E+03  6.368E-01  1.000E+01  2.500E-02  1.212E+00
   1    5    9     4     2    9.9091E+00  1.8158E-01   9.7275E+00  0.000E+00  0.000E+00  0.000E+00  1.07154E+03  6.315E-01  1.000E+01  5.000E-02  1.211E+00
   1    6    8     4     3    9.7275E+00  1.2689E-01   9.6006E+00  0.000E+00  0.000E+00  0.000E+00  1.06381E+03  6.256E-01  1.000E+01  3.500E-02  1.209E+00
   1    6    8     5     1    1.0432E+01  2.2686E-01   1.0205E+01  0.000E+00  0.000E+00  0.000E+00  1.05868E+03  6.790E-01  1.542E+01  6.166E-02  1.226E+00
   1    7    7     5     2    1.0205E+01  2.7894E-01   9.9265E+00  0.000E+00  0.000E+00  0.000E+00  1.05417E+03  6.732E-01  1.519E+01  7.594E-02  1.224E+00
   1    8    7     5     3    9.9265E+00  1.9221E-01   9.7343E+00  0.000E+00  0.000E+00  0.000E+00  1.04992E+03  6.676E-01  1.497E+01  5.241E-02  1.223E+00
   1    8    6     5     4    9.7343E+00  1.3577E-01   9.5985E+00  0.000E+00  0.000E+00  0.000E+00  1.04691E+03  6.637E-01  1.482E+01  3.706E-02  1.221E+00
   1    9    6     6     1    2.2604E+01  2.4874E-01   2.2355E+01  0.000E+00  0.000E+00  0.000E+00  1.04387E+03  1.146E+00  1.200E+01  6.000E-02  1.382E+00
   1   10    7     6     2    2.2355E+01  2.4828E-01   2.2107E+01  0.000E+00  0.000E+00  0.000E+00  1.03932E+03  1.138E+00  1.200E+01  6.000E-02  1.379E+00
   1   11    7     6     3    2.2107E+01  2.4782E-01   2.1859E+01  0.000E+00  0.000E+00  0.000E+00  1.03477E+03  1.130E+00  1.200E+01  6.000E-02  1.377E+00
   1   12    7     6     4    2.1859E+01  2.4736E-01   2.1611E+01  0.000E+00  0.000E+00  0.000E+00  1.03021E+03  1.123E+00  1.200E+01  6.000E-02  1.374E+00
   1   13    7     6     5    2.1611E+01  1.2415E-03   2.1610E+01  0.000E+00  0.000E+00  0.000E+00  1.02703E+03  1.119E+00  1.200E+01  2.400E-02  1.724E-02
   1   14    9     7     1    1.5000E+02  1.3449E+00   1.4866E+02  0.000E+00  0.000E+00  0.000E+00  1.03987E+03  2.288E+00  5.529E+01  5.593E-01  8.015E-01
   1   13    8     7     2    1.4866E+02  1.8655E+00   1.4679E+02  0.000E+00  0.000E+00  0.000E+00  1.03478E+03  2.279E+00  5.526E+01  6.148E-01  1.011E+00
   1   13    7     7     3    1.4679E+02  1.5152E+00   1.4527E+02  0.000E+00  0.000E+00  0.000E+00  1.02969E+03  2.270E+00  5.522E+01  5.584E-01  9.044E-01
   1   13    6     8     1    1.6688E+02  9.4702E-01   1.6594E+02  0.000E+00  0.000E+00  0.000E+00  1.02480E+03  2.929E+00  4.247E+01  4.327E-01  7.295E-01
   1   13    5     8     2    1.6594E+02  1.9777E-01   1.6574E+02  0.000E+00  0.000E+00  0.000E+00  1.01855E+03  2.925E+00  4.241E+01  4.322E-01  1.525E-01
   1   13    4     8     3    1.6574E+02 -2.3672E+00   1.6811E+02  0.000E+00  0.000E+00  0.000E+00  1.01231E+03  2.932E+00  4.251E+01  4.332E+00 -1.821E-01
   1   13    3     8     4    1.6811E+02 -3.6093E+00   1.7172E+02  0.000E+00  0.000E+00  0.000E+00  1.00608E+03  2.952E+00  4.280E+01  4.361E+00 -2.759E-01
   1   13    2     8     5    1.7172E+02 -2.5689E+00   1.7429E+02  0.000E+00  0.000E+00  0.000E+00  9.99847E+02  2.972E+00  4.309E+01  4.391E+00 -1.950E-01
   1   13    1     8     6    1.7429E+02 -1.9854E+00   1.7627E+02  0.000E+00  0.000E+00  0.000E+00  9.94861E+02  2.986E+00  4.330E+01  2.647E+00 -2.500E-01
   1    8    6     9     1    0.0000E+00  0.0000E+00   0.0000E+00  0.000E+00  0.000E+00  0.000E+00  1.07875E+03  0.000E+00  4.000E+00  0.000E+00  1.000E+00
   1    8    5     9     2    0.0000E+00  0.0000E+00   0.0000E+00  0.000E+00  0.000E+00  0.000E+00  1.07825E+03  0.000E+00  4.000E+00  0.000E+00  1.000E+00





UNSATURATED ZONE PACKAGE VOLUMETRIC BUDGET FOR  TIME STEP    30 STRESS PERIOD   37
  ------------------------------------------------------------------------------



     CUMULATIVE VOLUMES      L**3       RATES FOR THIS TIME STEP      L**3/T
     ------------------                 ------------------------

           IN:                                      IN:
           ---                                      ---
        INFILTRATION =  1425408604.9567          INFILTRATION =           0.8475

          OUT:                                     OUT:
          ----                                     ----
              UZF ET =  1285099847.6041                UZF ET =           0.7500
        UZF RECHARGE =       73224.0000          UZF RECHARGE =       0.0000E+00

            IN - OUT =   140235533.3526              IN - OUT =       9.7500E-02

          STORAGE:                                 STORAGE:
          --------                                 --------
      STORAGE CHANGE =   140236890.0519        STORAGE CHANGE =       9.7500E-02

 PERCENT DISCREPANCY IS DIFFERENCE BETWEEN IN-OUT MINUS CHANGE IN STORAGE
 DIVIDED BY THE AVERAGE OF IN AND OUT TIMES 100

 PERCENT DISCREPANCY =          -0.00     PERCENT DISCREPANCY =           0.00






1
  VOLUMETRIC BUDGET FOR AGRICULTURAL FIELDS AT  END OF TIME STEP   30, STRESS PERIOD  37
  ------------------------------------------------------------------------------

     CUMULATIVE VOLUMES      L**3       RATES FOR THIS TIME STEP      L**3/T
     ------------------                 ------------------------

           IN:                                      IN:
           ---                                      ---
               AG WELLS  =   381194528.0000                 AG WELLS  =           0.0000
      DIVERSION SEGMENTS =   963956736.0000        DIVERSION SEGMENTS =           0.0000
       IRRIGATION PONDS  =           0.0000         IRRIGATION PONDS  =           0.0000
           GW IRRIGATION =           0.0000             GW IRRIGATION =           0.0000
           SW IRRIGATION =           0.0000             SW IRRIGATION =           0.0000
        SYSTEM LOSSES GW =           0.0000          SYSTEM LOSSES GW =           0.0000
        SYSTEM LOSSES SW =           0.0000          SYSTEM LOSSES SW =           0.0000

                TOTAL IN =  1345151232.0000                  TOTAL IN =           0.0000

          OUT:                                     OUT:
          ----                                     ----
               AG WELLS  =           0.0000                 AG WELLS  =           0.0000
      DIVERSION SEGMENTS =           0.0000        DIVERSION SEGMENTS =           0.0000
       IRRIGATION PONDS  =           0.0000         IRRIGATION PONDS  =           0.0000
           GW IRRIGATION =   381194528.0000             GW IRRIGATION =           0.0000
           SW IRRIGATION =   963976704.0000             SW IRRIGATION =           0.0000
        SYSTEM LOSSES GW =           0.0000          SYSTEM LOSSES GW =           0.0000
        SYSTEM LOSSES SW =           0.0000          SYSTEM LOSSES SW =           0.0000

               TOTAL OUT =  1345171200.0000                 TOTAL OUT =           0.0000

                IN - OUT =      -19968.0000                  IN - OUT =           0.0000

     PERCENT DISCREPANCY =          -0.00         PERCENT DISCREPANCY =           0.00



1
  VOLUMETRIC BUDGET FOR ENTIRE MODEL AT END OF TIME STEP   30, STRESS PERIOD  37
  ------------------------------------------------------------------------------

     CUMULATIVE VOLUMES      L**3       RATES FOR THIS TIME STEP      L**3/T
     ------------------                 ------------------------

           IN:                                      IN:
           ---                                      ---
             STORAGE     =   663616448.0000               STORAGE     =           1.5467
       CONSTANT HEAD     =           0.0000         CONSTANT HEAD     =           0.0000
     HEAD DEP BOUNDS     =    27090456.0000       HEAD DEP BOUNDS     =           0.2864
      STREAM LEAKAGE     =  1133575424.0000        STREAM LEAKAGE     =          11.5097
        UZF RECHARGE     =       73223.9531          UZF RECHARGE     =           0.0000
               GW ET     =           0.0000                 GW ET     =           0.0000
     SURFACE LEAKAGE     =           0.0000       SURFACE LEAKAGE     =           0.0000
           AG WELLS      =           0.0000             AG WELLS      =           0.0000

                TOTAL IN =  1824355584.0000                  TOTAL IN =          13.3428

          OUT:                                     OUT:
          ----                                     ----
             STORAGE     =   393706784.0000               STORAGE     =           2.5231
       CONSTANT HEAD     =           0.0000         CONSTANT HEAD     =           0.0000
     HEAD DEP BOUNDS     =    27543996.0000       HEAD DEP BOUNDS     =           0.2892
      STREAM LEAKAGE     =  1018932096.0000        STREAM LEAKAGE     =          10.5308
        UZF RECHARGE     =           0.0000          UZF RECHARGE     =           0.0000
               GW ET     =     2982784.2500                 GW ET     =           0.0000
     SURFACE LEAKAGE     =           0.0000       SURFACE LEAKAGE     =           0.0000
           AG WELLS      =   381194528.0000             AG WELLS      =           0.0000

               TOTAL OUT =  1824360192.0000                 TOTAL OUT =          13.3431

                IN - OUT =       -4608.0000                  IN - OUT =      -2.7561E-04

     PERCENT DISCREPANCY =          -0.00         PERCENT DISCREPANCY =          -0.00






         TIME SUMMARY AT END OF TIME STEP   30 IN STRESS PERIOD   37
                    SECONDS     MINUTES      HOURS       DAYS        YEARS
                    -----------------------------------------------------------
   TIME STEP LENGTH  87667.      1461.1      24.352      1.0147     2.77799E-03
 STRESS PERIOD TIME 2.63000E+06  43833.      730.56      30.440     8.33397E-02
         TOTAL TIME 9.47660E+07 1.57943E+06  26324.      1096.8      3.0030    
1
1
                            STRESS PERIOD NO.   38, LENGTH =   2630000.    
                            -----------------------------------------------

                              NUMBER OF TIME STEPS =    30

                               MULTIPLIER FOR DELT =     1.000

                            INITIAL TIME STEP SIZE =   87666.66    

 REUSING NON-PARAMETER GHB CELLS FROM LAST STRESS PERIOD

      2 GHB CELLS

 REUSING STREAM SEGMENT DATA FROM LAST STRESS PERIOD



            AREAL INFILTRATION RATE
 READING ON UNIT   19 WITH FORMAT: (FREE)              

            1           2           3           4           5           6           7           8           9          10
 ........................................................................................................................
   1   1.0000E-10  2.0000E-10   0.000       0.000       0.000       0.000       0.000       0.000       0.000       0.000    
   2   2.0000E-10  1.0000E-10  2.0000E-10   0.000       0.000      8.0000E-10  8.0000E-10  5.0000E-10   0.000       0.000    
   3    0.000      5.0000E-10  1.0000E-10  1.0000E-10  8.0000E-10  8.0000E-10  5.0000E-10  5.0000E-10   0.000       0.000    
   4   8.0000E-10  5.0000E-10  1.0000E-10  1.0000E-10  1.0000E-10  1.0000E-10  1.0000E-10  1.0000E-10  2.0000E-10   0.000    
   5   8.0000E-10  5.0000E-10  1.0000E-10  1.0000E-10  1.0000E-10  1.0000E-10  1.0000E-10  1.0000E-10  1.0000E-10  1.0000E-10
   6   8.0000E-10  5.0000E-10  5.0000E-10  2.0000E-10  2.0000E-10  1.0000E-10  1.0000E-10  1.0000E-10  1.0000E-10  5.0000E-10
   7   8.0000E-10  5.0000E-10  5.0000E-10  2.0000E-10  2.0000E-10  1.0000E-10  1.0000E-10  2.0000E-10  2.0000E-10   0.000    
   8    0.000      5.0000E-10  5.0000E-10  2.0000E-10  2.0000E-10  1.0000E-10  1.0000E-10  2.0000E-10  5.0000E-10   0.000    
   9    0.000      5.0000E-10  5.0000E-10  2.0000E-10  2.0000E-10  1.0000E-10  1.0000E-10  2.0000E-10  5.0000E-10   0.000    
  10    0.000      5.0000E-10  5.0000E-10  2.0000E-10  2.0000E-10  1.0000E-10  1.0000E-10  2.0000E-10  5.0000E-10  8.0000E-10
  11    0.000      1.0000E-10  1.0000E-10  1.0000E-10  1.0000E-10  1.0000E-10  1.0000E-10  2.0000E-10  5.0000E-10   0.000    
  12   1.0000E-10  1.0000E-10  1.0000E-10  1.0000E-10  1.0000E-10  1.0000E-10  1.0000E-10  1.0000E-10  2.0000E-10   0.000    
  13   1.0000E-10  1.0000E-10  2.0000E-10  2.0000E-10  2.0000E-10  2.0000E-10  2.0000E-10  1.0000E-10  1.0000E-10   0.000    
  14    0.000      2.0000E-10  5.0000E-10  5.0000E-10  5.0000E-10  5.0000E-10  5.0000E-10  2.0000E-10  1.0000E-10   0.000    
  15    0.000       0.000      8.0000E-10  8.0000E-10  8.0000E-10  8.0000E-10   0.000       0.000       0.000       0.000    

                  ET RATE =  5.000000E-10

 USING ET EXTINCTION DEPTH FROM PREVIOUS STRESS PERIOD. CURRENT PERIOD IS:      38

 USING EXTINCTION WATER CONTENT FROM PREVIOUS STRESS PERIOD. CURRENT PERIOD IS:      38

 USING AIR ENTRY PRESSURE FROM PREVIOUS STRESS PERIOD. CURRENT PERIOD IS:      38

 USING ROOT PRESSURE HEAD FROM PREVIOUS STRESS PERIOD. CURRENT PERIOD IS:      38

 USING ROOT ACTIVITY FROM PREVIOUS STRESS PERIOD. CURRENT PERIOD IS:      38

 PROCESSING AG STRESS PERIOD DATA

 READING AG STRESS PERIOD DATA

 READING IRRIGATION SEGMENT

 READING IRRIGATION WELL

 READING SUPPLEMENTAL WELL

 NO IRRPOND OR REUSING IRRPOND DATA FROM LAST STRESS PERIOD

 END PROCESSING AG STRESS PERIOD DATA OPTIONS
 
 SOLVING FOR HEAD 
                                                   Max.-Head-Change                         Max.-Flux-Residual
  Residual-Control   Outer-Iter.   Inner-Iter.     Column Row Layer    Maximum-Head-Change  Column Row Layer    Maximum-Flux-Residual          L2-NORM 
          0                 1           2             4    7     1       0.4484872989E-02       4    7    1         0.2350720863E+00      0.6162266607E+00
          0                 2           2             4    7     1      -0.4362562409E-03       4    7    1        -0.2350723544E-01      0.6162100446E-01
          0                 3           1             4    7     1       0.2970742977E-04       4    7    1         0.1645506947E-02      0.4313342005E-02

    ------------------------------------------------
       NWT REQUIRED            3 OUTER ITERATIONS 
       AND A TOTAL OF          5 INNER ITERATIONS.
    ------------------------------------------------

 NO OUTPUT CONTROL FOR STRESS PERIOD   38   TIME STEP    1
 
 SOLVING FOR HEAD 
                                                   Max.-Head-Change                         Max.-Flux-Residual
  Residual-Control   Outer-Iter.   Inner-Iter.     Column Row Layer    Maximum-Head-Change  Column Row Layer    Maximum-Flux-Residual          L2-NORM 
          0                 1           2             4    7     1       0.4446299273E-02       4    7    1         0.2330389363E+00      0.6200352723E+00
          0                 2           2             4    7     1      -0.4325040611E-03       4    7    1        -0.2330391984E-01      0.6198156028E-01
          0                 3           1             4    7     1       0.2945192014E-04       4    7    1         0.1631274843E-02      0.4336630564E-02

    ------------------------------------------------
       NWT REQUIRED            3 OUTER ITERATIONS 
       AND A TOTAL OF          5 INNER ITERATIONS.
    ------------------------------------------------

 NO OUTPUT CONTROL FOR STRESS PERIOD   38   TIME STEP    2
 
 SOLVING FOR HEAD 
                                                   Max.-Head-Change                         Max.-Flux-Residual
  Residual-Control   Outer-Iter.   Inner-Iter.     Column Row Layer    Maximum-Head-Change  Column Row Layer    Maximum-Flux-Residual          L2-NORM 
          0                 1           2             4    7     1       0.4408058869E-02       4    7    1         0.2310241612E+00      0.6303922291E+00
          0                 2           2             4    7     1      -0.4287843047E-03       4    7    1        -0.2310244180E-01      0.6339534922E-01
          0                 3           1             4    7     1       0.2919861844E-04       4    7    1         0.1617171371E-02      0.4459299211E-02

    ------------------------------------------------
       NWT REQUIRED            3 OUTER ITERATIONS 
       AND A TOTAL OF          5 INNER ITERATIONS.
    ------------------------------------------------

 NO OUTPUT CONTROL FOR STRESS PERIOD   38   TIME STEP    3
 
 SOLVING FOR HEAD 
                                                   Max.-Head-Change                         Max.-Flux-Residual
  Residual-Control   Outer-Iter.   Inner-Iter.     Column Row Layer    Maximum-Head-Change  Column Row Layer    Maximum-Flux-Residual          L2-NORM 
          0                 1           2             4    7     1       0.4370427607E-02       4    7    1         0.2290414373E+00      0.6253377092E+00
          0                 2           2             4    7     1      -0.4251238013E-03       4    7    1        -0.2290416886E-01      0.6247529836E-01
          0                 3           1             4    7     1       0.2894935202E-04       4    7    1         0.1603292285E-02      0.4367889865E-02

    ------------------------------------------------
       NWT REQUIRED            3 OUTER ITERATIONS 
       AND A TOTAL OF          5 INNER ITERATIONS.
    ------------------------------------------------

 NO OUTPUT CONTROL FOR STRESS PERIOD   38   TIME STEP    4
 
 SOLVING FOR HEAD 
                                                   Max.-Head-Change                         Max.-Flux-Residual
  Residual-Control   Outer-Iter.   Inner-Iter.     Column Row Layer    Maximum-Head-Change  Column Row Layer    Maximum-Flux-Residual          L2-NORM 
          0                 1           2             4    7     1       0.4333120646E-02       4    7    1         0.2270755268E+00      0.6203778898E+00
          0                 2           2             4    7     1      -0.4214948433E-03       4    7    1        -0.2270757727E-01      0.6198640216E-01
          0                 3           1             4    7     1       0.2870223365E-04       4    7    1         0.1589530868E-02      0.4334130616E-02

    ------------------------------------------------
       NWT REQUIRED            3 OUTER ITERATIONS 
       AND A TOTAL OF          5 INNER ITERATIONS.
    ------------------------------------------------

 NO OUTPUT CONTROL FOR STRESS PERIOD   38   TIME STEP    5
 
 SOLVING FOR HEAD 
                                                   Max.-Head-Change                         Max.-Flux-Residual
  Residual-Control   Outer-Iter.   Inner-Iter.     Column Row Layer    Maximum-Head-Change  Column Row Layer    Maximum-Flux-Residual          L2-NORM 
          0                 1           2             4    7     1       0.4296678397E-02       4    7    1         0.2251559711E+00      0.6156528997E+00
          0                 2           2             4    7     1      -0.4179499984E-03       4    7    1        -0.2251562118E-01      0.6152042154E-01
          0                 3           1             4    7     1       0.2846084253E-04       4    7    1         0.1576093933E-02      0.4302250563E-02

    ------------------------------------------------
       NWT REQUIRED            3 OUTER ITERATIONS 
       AND A TOTAL OF          5 INNER ITERATIONS.
    ------------------------------------------------

 NO OUTPUT CONTROL FOR STRESS PERIOD   38   TIME STEP    6
 
 SOLVING FOR HEAD 
                                                   Max.-Head-Change                         Max.-Flux-Residual
  Residual-Control   Outer-Iter.   Inner-Iter.     Column Row Layer    Maximum-Head-Change  Column Row Layer    Maximum-Flux-Residual          L2-NORM 
          0                 1           2             4    7     1       0.4260538176E-02       4    7    1         0.2232517092E+00      0.6111397036E+00
          0                 2           2             4    7     1      -0.4144345330E-03       4    7    1        -0.2232519449E-01      0.6107512385E-01
          0                 3           1             4    7     1       0.2822145296E-04       4    7    1         0.1562764080E-02      0.4271706022E-02

    ------------------------------------------------
       NWT REQUIRED            3 OUTER ITERATIONS 
       AND A TOTAL OF          5 INNER ITERATIONS.
    ------------------------------------------------

 NO OUTPUT CONTROL FOR STRESS PERIOD   38   TIME STEP    7
 
 SOLVING FOR HEAD 
                                                   Max.-Head-Change                         Max.-Flux-Residual
  Residual-Control   Outer-Iter.   Inner-Iter.     Column Row Layer    Maximum-Head-Change  Column Row Layer    Maximum-Flux-Residual          L2-NORM 
          0                 1           2             4    7     1       0.4224694788E-02       4    7    1         0.2213631071E+00      0.6067807464E+00
          0                 2           2             4    7     1      -0.4109479412E-03       4    7    1        -0.2213633377E-01      0.6064364371E-01
          0                 3           1             4    7     1       0.2798402896E-04       4    7    1         0.1549543822E-02      0.4241956732E-02

    ------------------------------------------------
       NWT REQUIRED            3 OUTER ITERATIONS 
       AND A TOTAL OF          5 INNER ITERATIONS.
    ------------------------------------------------

 NO OUTPUT CONTROL FOR STRESS PERIOD   38   TIME STEP    8
 
 SOLVING FOR HEAD 
                                                   Max.-Head-Change                         Max.-Flux-Residual
  Residual-Control   Outer-Iter.   Inner-Iter.     Column Row Layer    Maximum-Head-Change  Column Row Layer    Maximum-Flux-Residual          L2-NORM 
          0                 1           2             4    7     1       0.4189691530E-02       4    7    1         0.2195194364E+00      0.6026006514E+00
          0                 2           2             4    7     1      -0.4075430719E-03       4    7    1        -0.2195196624E-01      0.6022965167E-01
          0                 3           1             4    7     1       0.2775216986E-04       4    7    1         0.1536638086E-02      0.4213241438E-02

    ------------------------------------------------
       NWT REQUIRED            3 OUTER ITERATIONS 
       AND A TOTAL OF          5 INNER ITERATIONS.
    ------------------------------------------------

 NO OUTPUT CONTROL FOR STRESS PERIOD   38   TIME STEP    9
 
 SOLVING FOR HEAD 
                                                   Max.-Head-Change                         Max.-Flux-Residual
  Residual-Control   Outer-Iter.   Inner-Iter.     Column Row Layer    Maximum-Head-Change  Column Row Layer    Maximum-Flux-Residual          L2-NORM 
          0                 1           2             4    7     1       0.4154961198E-02       4    7    1         0.2176897842E+00      0.5985476891E+00
          0                 2           2             4    7     1      -0.4041647506E-03       4    7    1        -0.2176900055E-01      0.5982809727E-01
          0                 3           1             4    7     1       0.2752211895E-04       4    7    1         0.1523830483E-02      0.4185626854E-02

    ------------------------------------------------
       NWT REQUIRED            3 OUTER ITERATIONS 
       AND A TOTAL OF          5 INNER ITERATIONS.
    ------------------------------------------------

 NO OUTPUT CONTROL FOR STRESS PERIOD   38   TIME STEP   10
 
 SOLVING FOR HEAD 
                                                   Max.-Head-Change                         Max.-Flux-Residual
  Residual-Control   Outer-Iter.   Inner-Iter.     Column Row Layer    Maximum-Head-Change  Column Row Layer    Maximum-Flux-Residual          L2-NORM 
          0                 1           2             4    7     1       0.4120779279E-02       4    7    1         0.2158890536E+00      0.5946359702E+00
          0                 2           2             4    7     1      -0.4008397751E-03       4    7    1        -0.2158892703E-01      0.5944008574E-01
          0                 3           1             4    7     1       0.2729570025E-04       4    7    1         0.1511225336E-02      0.4158628987E-02

    ------------------------------------------------
       NWT REQUIRED            3 OUTER ITERATIONS 
       AND A TOTAL OF          5 INNER ITERATIONS.
    ------------------------------------------------

 NO OUTPUT CONTROL FOR STRESS PERIOD   38   TIME STEP   11
 
 SOLVING FOR HEAD 
                                                   Max.-Head-Change                         Max.-Flux-Residual
  Residual-Control   Outer-Iter.   Inner-Iter.     Column Row Layer    Maximum-Head-Change  Column Row Layer    Maximum-Flux-Residual          L2-NORM 
          0                 1           2             4    7     1       0.4087133470E-02       4    7    1         0.2141167576E+00      0.5908340392E+00
          0                 2           2             4    7     1      -0.3975669487E-03       4    7    1        -0.2141169699E-01      0.5906251339E-01
          0                 3           1             4    7     1       0.2707283308E-04       4    7    1         0.1498819235E-02      0.4132434636E-02

    ------------------------------------------------
       NWT REQUIRED            3 OUTER ITERATIONS 
       AND A TOTAL OF          5 INNER ITERATIONS.
    ------------------------------------------------

 NO OUTPUT CONTROL FOR STRESS PERIOD   38   TIME STEP   12
 
 SOLVING FOR HEAD 
                                                   Max.-Head-Change                         Max.-Flux-Residual
  Residual-Control   Outer-Iter.   Inner-Iter.     Column Row Layer    Maximum-Head-Change  Column Row Layer    Maximum-Flux-Residual          L2-NORM 
          0                 1           2             4    7     1       0.4053739257E-02       4    7    1         0.2123574872E+00      0.5871254554E+00
          0                 2           2             4    7     1      -0.3943185963E-03       4    7    1        -0.2123576953E-01      0.5869423964E-01
          0                 3           1             4    7     1       0.2685163232E-04       4    7    1         0.1486504314E-02      0.4106981884E-02

    ------------------------------------------------
       NWT REQUIRED            3 OUTER ITERATIONS 
       AND A TOTAL OF          5 INNER ITERATIONS.
    ------------------------------------------------

 NO OUTPUT CONTROL FOR STRESS PERIOD   38   TIME STEP   13
 
 SOLVING FOR HEAD 
                                                   Max.-Head-Change                         Max.-Flux-Residual
  Residual-Control   Outer-Iter.   Inner-Iter.     Column Row Layer    Maximum-Head-Change  Column Row Layer    Maximum-Flux-Residual          L2-NORM 
          0                 1           2             4    7     1       0.4020870215E-02       4    7    1         0.2106260329E+00      0.5835205588E+00
          0                 2           2             4    7     1      -0.3911213286E-03       4    7    1        -0.2106262367E-01      0.5833568615E-01
          0                 3           1             4    7     1       0.2663391043E-04       4    7    1         0.1474384110E-02      0.4082053618E-02

    ------------------------------------------------
       NWT REQUIRED            3 OUTER ITERATIONS 
       AND A TOTAL OF          5 INNER ITERATIONS.
    ------------------------------------------------

 NO OUTPUT CONTROL FOR STRESS PERIOD   38   TIME STEP   14
 
 SOLVING FOR HEAD 
                                                   Max.-Head-Change                         Max.-Flux-Residual
  Residual-Control   Outer-Iter.   Inner-Iter.     Column Row Layer    Maximum-Head-Change  Column Row Layer    Maximum-Flux-Residual          L2-NORM 
          0                 1           2             4    7     1       0.3988511765E-02       4    7    1         0.2089218081E+00      0.5799940661E+00
          0                 2           2             4    7     1      -0.3879737276E-03       4    7    1        -0.2089220076E-01      0.5798496498E-01
          0                 3           1             4    7     1       0.2641957059E-04       4    7    1         0.1462454507E-02      0.4057887428E-02

    ------------------------------------------------
       NWT REQUIRED            3 OUTER ITERATIONS 
       AND A TOTAL OF          5 INNER ITERATIONS.
    ------------------------------------------------

 NO OUTPUT CONTROL FOR STRESS PERIOD   38   TIME STEP   15
 
 SOLVING FOR HEAD 
                                                   Max.-Head-Change                         Max.-Flux-Residual
  Residual-Control   Outer-Iter.   Inner-Iter.     Column Row Layer    Maximum-Head-Change  Column Row Layer    Maximum-Flux-Residual          L2-NORM 
          0                 1           2             4    7     1       0.3956652950E-02       4    7    1         0.2072440569E+00      0.5765451730E+00
          0                 2           2             4    7     1      -0.3848747275E-03       4    7    1        -0.2072442525E-01      0.5764153132E-01
          0                 3           1             4    7     1       0.2620853992E-04       4    7    1         0.1450710197E-02      0.4033660728E-02

    ------------------------------------------------
       NWT REQUIRED            3 OUTER ITERATIONS 
       AND A TOTAL OF          5 INNER ITERATIONS.
    ------------------------------------------------

 NO OUTPUT CONTROL FOR STRESS PERIOD   38   TIME STEP   16
 
 SOLVING FOR HEAD 
                                                   Max.-Head-Change                         Max.-Flux-Residual
  Residual-Control   Outer-Iter.   Inner-Iter.     Column Row Layer    Maximum-Head-Change  Column Row Layer    Maximum-Flux-Residual          L2-NORM 
          0                 1           2             4    7     1       0.3925282483E-02       4    7    1         0.2055922112E+00      0.5731724950E+00
          0                 2           2             4    7     1      -0.3818232308E-03       4    7    1        -0.2055924030E-01      0.5730570580E-01
          0                 3           1             4    7     1       0.2600074434E-04       4    7    1         0.1439147253E-02      0.4010328470E-02

    ------------------------------------------------
       NWT REQUIRED            3 OUTER ITERATIONS 
       AND A TOTAL OF          5 INNER ITERATIONS.
    ------------------------------------------------

 NO OUTPUT CONTROL FOR STRESS PERIOD   38   TIME STEP   17
 
 SOLVING FOR HEAD 
                                                   Max.-Head-Change                         Max.-Flux-Residual
  Residual-Control   Outer-Iter.   Inner-Iter.     Column Row Layer    Maximum-Head-Change  Column Row Layer    Maximum-Flux-Residual          L2-NORM 
          0                 1           2             4    7     1       0.3894122035E-02       4    7    1         0.2039509140E+00      0.5698688456E+00
          0                 2           2             4    7     1      -0.3787921635E-03       4    7    1        -0.2039511020E-01      0.5697663722E-01
          0                 3           1             4    7     1       0.2579434040E-04       4    7    1         0.1427658156E-02      0.3987457091E-02

    ------------------------------------------------
       NWT REQUIRED            3 OUTER ITERATIONS 
       AND A TOTAL OF          5 INNER ITERATIONS.
    ------------------------------------------------

 NO OUTPUT CONTROL FOR STRESS PERIOD   38   TIME STEP   18
 
 SOLVING FOR HEAD 
                                                   Max.-Head-Change                         Max.-Flux-Residual
  Residual-Control   Outer-Iter.   Inner-Iter.     Column Row Layer    Maximum-Head-Change  Column Row Layer    Maximum-Flux-Residual          L2-NORM 
          0                 1           2             4    7     1       0.3863438364E-02       4    7    1         0.2023352779E+00      0.5666171163E+00
          0                 2           2             4    7     1      -0.3758074733E-03       4    7    1        -0.2023354622E-01      0.5665258070E-01
          0                 3           1             4    7     1       0.2559109367E-04       4    7    1         0.1416348670E-02      0.3964872060E-02

    ------------------------------------------------
       NWT REQUIRED            3 OUTER ITERATIONS 
       AND A TOTAL OF          5 INNER ITERATIONS.
    ------------------------------------------------

 NO OUTPUT CONTROL FOR STRESS PERIOD   38   TIME STEP   19
 
 SOLVING FOR HEAD 
                                                   Max.-Head-Change                         Max.-Flux-Residual
  Residual-Control   Outer-Iter.   Inner-Iter.     Column Row Layer    Maximum-Head-Change  Column Row Layer    Maximum-Flux-Residual          L2-NORM 
          0                 1           2             4    7     1       0.3833223040E-02       4    7    1         0.2007443620E+00      0.5634257899E+00
          0                 2           2             4    7     1      -0.3728683410E-03       4    7    1        -0.2007445427E-01      0.5633428365E-01
          0                 3           1             4    7     1       0.2539094998E-04       4    7    1         0.1405212225E-02      0.3942567204E-02

    ------------------------------------------------
       NWT REQUIRED            3 OUTER ITERATIONS 
       AND A TOTAL OF          5 INNER ITERATIONS.
    ------------------------------------------------

 NO OUTPUT CONTROL FOR STRESS PERIOD   38   TIME STEP   20
 
 SOLVING FOR HEAD 
                                                   Max.-Head-Change                         Max.-Flux-Residual
  Residual-Control   Outer-Iter.   Inner-Iter.     Column Row Layer    Maximum-Head-Change  Column Row Layer    Maximum-Flux-Residual          L2-NORM 
          0                 1           2             4    7     1       0.3803197017E-02       4    7    1         0.1991629573E+00      0.5602907130E+00
          0                 2           2             4    7     1      -0.3699476224E-03       4    7    1        -0.1991631344E-01      0.5602170144E-01
          0                 3           1             4    7     1       0.2519205993E-04       4    7    1         0.1394142374E-02      0.3920834792E-02

    ------------------------------------------------
       NWT REQUIRED            3 OUTER ITERATIONS 
       AND A TOTAL OF          5 INNER ITERATIONS.
    ------------------------------------------------

 NO OUTPUT CONTROL FOR STRESS PERIOD   38   TIME STEP   21
 
 SOLVING FOR HEAD 
                                                   Max.-Head-Change                         Max.-Flux-Residual
  Residual-Control   Outer-Iter.   Inner-Iter.     Column Row Layer    Maximum-Head-Change  Column Row Layer    Maximum-Flux-Residual          L2-NORM 
          0                 1           2             4    7     1       0.3773634489E-02       4    7    1         0.1976061398E+00      0.5572069688E+00
          0                 2           2             4    7     1      -0.3670719896E-03       4    7    1        -0.1976063133E-01      0.5571405222E-01
          0                 3           1             4    7     1       0.2499624002E-04       4    7    1         0.1383244635E-02      0.3899405522E-02

    ------------------------------------------------
       NWT REQUIRED            3 OUTER ITERATIONS 
       AND A TOTAL OF          5 INNER ITERATIONS.
    ------------------------------------------------

 NO OUTPUT CONTROL FOR STRESS PERIOD   38   TIME STEP   22
 
 SOLVING FOR HEAD 
                                                   Max.-Head-Change                         Max.-Flux-Residual
  Residual-Control   Outer-Iter.   Inner-Iter.     Column Row Layer    Maximum-Head-Change  Column Row Layer    Maximum-Flux-Residual          L2-NORM 
          0                 1           2             4    7     1       0.3744793117E-02       4    7    1         0.1960881263E+00      0.5541806758E+00
          0                 2           2             4    7     1      -0.3642665054E-03       4    7    1        -0.1960882967E-01      0.5541224022E-01
          0                 3           1             4    7     1       0.2480519665E-04       4    7    1         0.1372618489E-02      0.3878466817E-02

    ------------------------------------------------
       NWT REQUIRED            3 OUTER ITERATIONS 
       AND A TOTAL OF          5 INNER ITERATIONS.
    ------------------------------------------------

 NO OUTPUT CONTROL FOR STRESS PERIOD   38   TIME STEP   23
 
 SOLVING FOR HEAD 
                                                   Max.-Head-Change                         Max.-Flux-Residual
  Residual-Control   Outer-Iter.   Inner-Iter.     Column Row Layer    Maximum-Head-Change  Column Row Layer    Maximum-Flux-Residual          L2-NORM 
          0                 1           2             4    7     1       0.3715836868E-02       4    7    1         0.1945631867E+00      0.5511857147E+00
          0                 2           2             4    7     1      -0.3614498470E-03       4    7    1        -0.1945633537E-01      0.5511311911E-01
          0                 3           1             4    7     1       0.2461339260E-04       4    7    1         0.1361943884E-02      0.3857525201E-02

    ------------------------------------------------
       NWT REQUIRED            3 OUTER ITERATIONS 
       AND A TOTAL OF          5 INNER ITERATIONS.
    ------------------------------------------------

 NO OUTPUT CONTROL FOR STRESS PERIOD   38   TIME STEP   24
 
 SOLVING FOR HEAD 
                                                   Max.-Head-Change                         Max.-Flux-Residual
  Residual-Control   Outer-Iter.   Inner-Iter.     Column Row Layer    Maximum-Head-Change  Column Row Layer    Maximum-Flux-Residual          L2-NORM 
          0                 1           2             4    7     1       0.3687593503E-02       4    7    1         0.1930766082E+00      0.5482425868E+00
          0                 2           2             4    7     1      -0.3587025332E-03       4    7    1        -0.1930767720E-01      0.5481931698E-01
          0                 3           1             4    7     1       0.2442631090E-04       4    7    1         0.1351537834E-02      0.3836616159E-02

    ------------------------------------------------
       NWT REQUIRED            3 OUTER ITERATIONS 
       AND A TOTAL OF          5 INNER ITERATIONS.
    ------------------------------------------------

 NO OUTPUT CONTROL FOR STRESS PERIOD   38   TIME STEP   25
 
 SOLVING FOR HEAD 
                                                   Max.-Head-Change                         Max.-Flux-Residual
  Residual-Control   Outer-Iter.   Inner-Iter.     Column Row Layer    Maximum-Head-Change  Column Row Layer    Maximum-Flux-Residual          L2-NORM 
          0                 1           2             4    7     1       0.3659770669E-02       4    7    1         0.1916122195E+00      0.5453452483E+00
          0                 2           2             4    7     1      -0.3559961257E-03       4    7    1        -0.1916123801E-01      0.5453009309E-01
          0                 3           1             4    7     1       0.2424201508E-04       4    7    1         0.1341287104E-02      0.3816731652E-02

    ------------------------------------------------
       NWT REQUIRED            3 OUTER ITERATIONS 
       AND A TOTAL OF          5 INNER ITERATIONS.
    ------------------------------------------------

 NO OUTPUT CONTROL FOR STRESS PERIOD   38   TIME STEP   26
 
 SOLVING FOR HEAD 
                                                   Max.-Head-Change                         Max.-Flux-Residual
  Residual-Control   Outer-Iter.   Inner-Iter.     Column Row Layer    Maximum-Head-Change  Column Row Layer    Maximum-Flux-Residual          L2-NORM 
          0                 1           2             4    7     1       0.3632086376E-02       4    7    1         0.1901548620E+00      0.5424778587E+00
          0                 2           2             4    7     1      -0.3533031945E-03       4    7    1        -0.1901550196E-01      0.5424365253E-01
          0                 3           1             4    7     1       0.2405863661E-04       4    7    1         0.1331085584E-02      0.3796683060E-02

    ------------------------------------------------
       NWT REQUIRED            3 OUTER ITERATIONS 
       AND A TOTAL OF          5 INNER ITERATIONS.
    ------------------------------------------------

 NO OUTPUT CONTROL FOR STRESS PERIOD   38   TIME STEP   27
 
 SOLVING FOR HEAD 
                                                   Max.-Head-Change                         Max.-Flux-Residual
  Residual-Control   Outer-Iter.   Inner-Iter.     Column Row Layer    Maximum-Head-Change  Column Row Layer    Maximum-Flux-Residual          L2-NORM 
          0                 1           2             4    7     1       0.3604819996E-02       4    7    1         0.1887194605E+00      0.5396596369E+00
          0                 2           2             4    7     1      -0.3506509141E-03       4    7    1        -0.1887196150E-01      0.5396232982E-01
          0                 3           1             4    7     1       0.2387802508E-04       4    7    1         0.1321037706E-02      0.3777088088E-02

    ------------------------------------------------
       NWT REQUIRED            3 OUTER ITERATIONS 
       AND A TOTAL OF          5 INNER ITERATIONS.
    ------------------------------------------------

 NO OUTPUT CONTROL FOR STRESS PERIOD   38   TIME STEP   28
 
 SOLVING FOR HEAD 
                                                   Max.-Head-Change                         Max.-Flux-Residual
  Residual-Control   Outer-Iter.   Inner-Iter.     Column Row Layer    Maximum-Head-Change  Column Row Layer    Maximum-Flux-Residual          L2-NORM 
          0                 1           2             4    7     1       0.3577963733E-02       4    7    1         0.1873057273E+00      0.5368896086E+00
          0                 2           2             4    7     1      -0.3480385279E-03       4    7    1        -0.1873058790E-01      0.5368554822E-01
          0                 3           1             4    7     1       0.2370013174E-04       4    7    1         0.1311141561E-02      0.3757685731E-02

    ------------------------------------------------
       NWT REQUIRED            3 OUTER ITERATIONS 
       AND A TOTAL OF          5 INNER ITERATIONS.
    ------------------------------------------------

 NO OUTPUT CONTROL FOR STRESS PERIOD   38   TIME STEP   29
 
 SOLVING FOR HEAD 
                                                   Max.-Head-Change                         Max.-Flux-Residual
  Residual-Control   Outer-Iter.   Inner-Iter.     Column Row Layer    Maximum-Head-Change  Column Row Layer    Maximum-Flux-Residual          L2-NORM 
          0                 1           2             4    7     1       0.3551230438E-02       4    7    1         0.1858984852E+00      0.5341339537E+00
          0                 2           2             4    7     1      -0.3454381033E-03       4    7    1        -0.1858986340E-01      0.5341027027E-01
          0                 3           1             4    7     1       0.2352305280E-04       4    7    1         0.1301290855E-02      0.3738242762E-02

    ------------------------------------------------
       NWT REQUIRED            3 OUTER ITERATIONS 
       AND A TOTAL OF          5 INNER ITERATIONS.
    ------------------------------------------------

 NO OUTPUT CONTROL FOR STRESS PERIOD   38   TIME STEP   30



 STREAM LISTING     PERIOD     38   STEP       30

 LAYER ROW COL. STREAM  RCH.  FLOW INTO     FLOW TO   FLOW OUT OF   OVRLND.     DIRECT     STREAM       STREAM     STREAM     STREAM   STREAMBED  STREAMBED
                SEG.NO.  NO.  STRM. RCH.    AQUIFER    STRM. RCH.    RUNOFF     PRECIP       ET          HEAD       DEPTH      WIDTH   CONDCTNC.   GRADIENT

   1    1    1     1     1    1.4250E+01  1.8168E-01   1.4068E+01  0.000E+00  0.000E+00  0.000E+00  1.09404E+03  9.953E-01  1.011E+01  4.547E-02  1.332E+00
   1    2    2     1     2    1.4068E+01  2.7999E-01   1.3788E+01  0.000E+00  0.000E+00  0.000E+00  1.08905E+03  9.906E-01  1.002E+01  7.016E-02  1.330E+00
   1    3    3     1     3    1.3788E+01  2.3744E-01   1.3550E+01  0.000E+00  0.000E+00  0.000E+00  1.08340E+03  9.852E-01  9.930E+00  5.958E-02  1.328E+00
   1    3    4     1     4    1.3550E+01  2.1755E-01   1.3333E+01  0.000E+00  0.000E+00  0.000E+00  1.07839E+03  9.805E-01  9.847E+00  5.465E-02  1.327E+00
   1    4    5     2     1    1.1333E+01  2.9214E-01   1.1041E+01  0.000E+00  0.000E+00  0.000E+00  1.07268E+03  7.454E-01  1.200E+01  7.800E-02  1.248E+00
   1    5    6     2     2    1.1041E+01  2.2410E-01   1.0817E+01  0.000E+00  0.000E+00  0.000E+00  1.06724E+03  7.350E-01  1.200E+01  6.000E-02  1.245E+00
   1    6    6     2     3    1.0817E+01  2.2356E-01   1.0593E+01  0.000E+00  0.000E+00  0.000E+00  1.06252E+03  7.259E-01  1.200E+01  6.000E-02  1.242E+00
   1    7    6     2     4    1.0593E+01  2.2301E-01   1.0370E+01  0.000E+00  0.000E+00  0.000E+00  1.05779E+03  7.168E-01  1.200E+01  6.000E-02  1.239E+00
   1    8    6     2     5    1.0370E+01  2.2246E-01   1.0148E+01  0.000E+00  0.000E+00  0.000E+00  1.05307E+03  7.076E-01  1.200E+01  6.000E-02  1.236E+00
   1    3    5     3     1    2.0000E+00  2.8252E-01   1.7175E+00  0.000E+00  0.000E+00  0.000E+00  1.07555E+03  1.909E+00  9.636E+00  7.227E-02  1.955E+00
   1    3    6     3     2    1.7175E+00  2.4905E-01   1.4684E+00  0.000E+00  0.000E+00  0.000E+00  1.07264E+03  1.727E+00  8.909E+00  6.682E-02  1.864E+00
   1    3    7     3     3    1.4684E+00  1.9718E-01   1.2712E+00  0.000E+00  0.000E+00  0.000E+00  1.06987E+03  1.555E+00  8.218E+00  5.547E-02  1.777E+00
   1    4    8     3     4    1.2712E+00  2.2567E-01   1.0456E+00  0.000E+00  0.000E+00  0.000E+00  1.06682E+03  1.364E+00  7.455E+00  6.709E-02  1.682E+00
   1    5    8     3     5    1.0456E+00  1.5790E-01   8.8768E-01  0.000E+00  0.000E+00  0.000E+00  1.06362E+03  1.164E+00  6.655E+00  4.991E-02  1.582E+00
   1    6    8     3     6    8.8768E-01  5.5980E-02   8.3170E-01  0.000E+00  0.000E+00  0.000E+00  1.06158E+03  1.036E+00  6.145E+00  1.844E-02  1.518E+00
   1    5   10     4     1    1.0000E+01  9.0919E-02   9.9091E+00  0.000E+00  0.000E+00  0.000E+00  1.07836E+03  6.368E-01  1.000E+01  2.500E-02  1.212E+00
   1    5    9     4     2    9.9091E+00  1.8158E-01   9.7275E+00  0.000E+00  0.000E+00  0.000E+00  1.07154E+03  6.315E-01  1.000E+01  5.000E-02  1.211E+00
   1    6    8     4     3    9.7275E+00  1.2689E-01   9.6006E+00  0.000E+00  0.000E+00  0.000E+00  1.06381E+03  6.256E-01  1.000E+01  3.500E-02  1.209E+00
   1    6    8     5     1    1.0432E+01  2.2686E-01   1.0205E+01  0.000E+00  0.000E+00  0.000E+00  1.05868E+03  6.790E-01  1.542E+01  6.166E-02  1.226E+00
   1    7    7     5     2    1.0205E+01  2.7894E-01   9.9265E+00  0.000E+00  0.000E+00  0.000E+00  1.05417E+03  6.732E-01  1.519E+01  7.594E-02  1.224E+00
   1    8    7     5     3    9.9265E+00  1.9221E-01   9.7343E+00  0.000E+00  0.000E+00  0.000E+00  1.04992E+03  6.676E-01  1.497E+01  5.241E-02  1.223E+00
   1    8    6     5     4    9.7343E+00  1.3577E-01   9.5985E+00  0.000E+00  0.000E+00  0.000E+00  1.04691E+03  6.637E-01  1.482E+01  3.706E-02  1.221E+00
   1    9    6     6     1    1.9746E+01  2.4336E-01   1.9503E+01  0.000E+00  0.000E+00  0.000E+00  1.04378E+03  1.056E+00  1.200E+01  6.000E-02  1.352E+00
   1   10    7     6     2    1.9503E+01  2.4289E-01   1.9260E+01  0.000E+00  0.000E+00  0.000E+00  1.03923E+03  1.048E+00  1.200E+01  6.000E-02  1.349E+00
   1   11    7     6     3    1.9260E+01  2.4241E-01   1.9018E+01  0.000E+00  0.000E+00  0.000E+00  1.03468E+03  1.040E+00  1.200E+01  6.000E-02  1.347E+00
   1   12    7     6     4    1.9018E+01  2.4194E-01   1.8776E+01  0.000E+00  0.000E+00  0.000E+00  1.03012E+03  1.032E+00  1.200E+01  6.000E-02  1.344E+00
   1   13    7     6     5    1.8776E+01 -7.0888E-03   1.8783E+01  0.000E+00  0.000E+00  0.000E+00  1.02694E+03  1.028E+00  1.200E+01  2.400E-01 -9.846E-03
   1   14    9     7     1    1.5000E+02  1.3458E+00   1.4865E+02  0.000E+00  0.000E+00  0.000E+00  1.03987E+03  2.288E+00  5.529E+01  5.593E-01  8.021E-01
   1   13    8     7     2    1.4865E+02  1.8677E+00   1.4679E+02  0.000E+00  0.000E+00  0.000E+00  1.03478E+03  2.279E+00  5.526E+01  6.148E-01  1.013E+00
   1   13    7     7     3    1.4679E+02  1.5203E+00   1.4527E+02  0.000E+00  0.000E+00  0.000E+00  1.02969E+03  2.270E+00  5.522E+01  5.584E-01  9.075E-01
   1   13    6     8     1    1.6405E+02  9.3839E-01   1.6311E+02  0.000E+00  0.000E+00  0.000E+00  1.02478E+03  2.910E+00  4.219E+01  4.300E-01  7.275E-01
   1   13    5     8     2    1.6311E+02  1.9358E-01   1.6292E+02  0.000E+00  0.000E+00  0.000E+00  1.01853E+03  2.906E+00  4.214E+01  4.294E-01  1.503E-01
   1   13    4     8     3    1.6292E+02 -2.3749E+00   1.6529E+02  0.000E+00  0.000E+00  0.000E+00  1.01229E+03  2.913E+00  4.224E+01  4.305E+00 -1.839E-01
   1   13    3     8     4    1.6529E+02 -3.6121E+00   1.6890E+02  0.000E+00  0.000E+00  0.000E+00  1.00606E+03  2.933E+00  4.253E+01  4.334E+00 -2.778E-01
   1   13    2     8     5    1.6890E+02 -2.5722E+00   1.7148E+02  0.000E+00  0.000E+00  0.000E+00  9.99828E+02  2.953E+00  4.282E+01  4.364E+00 -1.965E-01
   1   13    1     8     6    1.7148E+02 -1.9872E+00   1.7346E+02  0.000E+00  0.000E+00  0.000E+00  9.94843E+02  2.968E+00  4.304E+01  2.632E+00 -2.517E-01
   1    8    6     9     1    0.0000E+00  0.0000E+00   0.0000E+00  0.000E+00  0.000E+00  0.000E+00  1.07875E+03  0.000E+00  4.000E+00  0.000E+00  1.000E+00
   1    8    5     9     2    0.0000E+00  0.0000E+00   0.0000E+00  0.000E+00  0.000E+00  0.000E+00  1.07825E+03  0.000E+00  4.000E+00  0.000E+00  1.000E+00





UNSATURATED ZONE PACKAGE VOLUMETRIC BUDGET FOR  TIME STEP    30 STRESS PERIOD   38
  ------------------------------------------------------------------------------



     CUMULATIVE VOLUMES      L**3       RATES FOR THIS TIME STEP      L**3/T
     ------------------                 ------------------------

           IN:                                      IN:
           ---                                      ---
        INFILTRATION =  1427637529.8294          INFILTRATION =           0.8475

          OUT:                                     OUT:
          ----                                     ----
              UZF ET =  1287072347.5150                UZF ET =           0.7500
        UZF RECHARGE =       73224.0000          UZF RECHARGE =       0.0000E+00

            IN - OUT =   140491958.3144              IN - OUT =       9.7500E-02

          STORAGE:                                 STORAGE:
          --------                                 --------
      STORAGE CHANGE =   140493315.0339        STORAGE CHANGE =       9.7500E-02

 PERCENT DISCREPANCY IS DIFFERENCE BETWEEN IN-OUT MINUS CHANGE IN STORAGE
 DIVIDED BY THE AVERAGE OF IN AND OUT TIMES 100

 PERCENT DISCREPANCY =          -0.00     PERCENT DISCREPANCY =           0.00






1
  VOLUMETRIC BUDGET FOR AGRICULTURAL FIELDS AT  END OF TIME STEP   30, STRESS PERIOD  38
  ------------------------------------------------------------------------------

     CUMULATIVE VOLUMES      L**3       RATES FOR THIS TIME STEP      L**3/T
     ------------------                 ------------------------

           IN:                                      IN:
           ---                                      ---
               AG WELLS  =   381194528.0000                 AG WELLS  =           0.0000
      DIVERSION SEGMENTS =   963956736.0000        DIVERSION SEGMENTS =           0.0000
       IRRIGATION PONDS  =           0.0000         IRRIGATION PONDS  =           0.0000
           GW IRRIGATION =           0.0000             GW IRRIGATION =           0.0000
           SW IRRIGATION =           0.0000             SW IRRIGATION =           0.0000
        SYSTEM LOSSES GW =           0.0000          SYSTEM LOSSES GW =           0.0000
        SYSTEM LOSSES SW =           0.0000          SYSTEM LOSSES SW =           0.0000

                TOTAL IN =  1345151232.0000                  TOTAL IN =           0.0000

          OUT:                                     OUT:
          ----                                     ----
               AG WELLS  =           0.0000                 AG WELLS  =           0.0000
      DIVERSION SEGMENTS =           0.0000        DIVERSION SEGMENTS =           0.0000
       IRRIGATION PONDS  =           0.0000         IRRIGATION PONDS  =           0.0000
           GW IRRIGATION =   381194528.0000             GW IRRIGATION =           0.0000
           SW IRRIGATION =   963976704.0000             SW IRRIGATION =           0.0000
        SYSTEM LOSSES GW =           0.0000          SYSTEM LOSSES GW =           0.0000
        SYSTEM LOSSES SW =           0.0000          SYSTEM LOSSES SW =           0.0000

               TOTAL OUT =  1345171200.0000                 TOTAL OUT =           0.0000

                IN - OUT =      -19968.0000                  IN - OUT =           0.0000

     PERCENT DISCREPANCY =          -0.00         PERCENT DISCREPANCY =           0.00



1
  VOLUMETRIC BUDGET FOR ENTIRE MODEL AT END OF TIME STEP   30, STRESS PERIOD  38
  ------------------------------------------------------------------------------

     CUMULATIVE VOLUMES      L**3       RATES FOR THIS TIME STEP      L**3/T
     ------------------                 ------------------------

           IN:                                      IN:
           ---                                      ---
             STORAGE     =   667921664.0000               STORAGE     =           1.4788
       CONSTANT HEAD     =           0.0000         CONSTANT HEAD     =           0.0000
     HEAD DEP BOUNDS     =    27843708.0000       HEAD DEP BOUNDS     =           0.2864
      STREAM LEAKAGE     =  1163401216.0000        STREAM LEAKAGE     =          11.3397
        UZF RECHARGE     =       73223.9531          UZF RECHARGE     =           0.0000
               GW ET     =           0.0000                 GW ET     =           0.0000
     SURFACE LEAKAGE     =           0.0000       SURFACE LEAKAGE     =           0.0000
           AG WELLS      =           0.0000             AG WELLS      =           0.0000

                TOTAL IN =  1859239808.0000                  TOTAL IN =          13.1050

          OUT:                                     OUT:
          ----                                     ----
             STORAGE     =   399917024.0000               STORAGE     =           2.2630
       CONSTANT HEAD     =           0.0000         CONSTANT HEAD     =           0.0000
     HEAD DEP BOUNDS     =    28303894.0000       HEAD DEP BOUNDS     =           0.2887
      STREAM LEAKAGE     =  1046846528.0000        STREAM LEAKAGE     =          10.5535
        UZF RECHARGE     =           0.0000          UZF RECHARGE     =           0.0000
               GW ET     =     2982784.2500                 GW ET     =           0.0000
     SURFACE LEAKAGE     =           0.0000       SURFACE LEAKAGE     =           0.0000
           AG WELLS      =   381194528.0000             AG WELLS      =           0.0000

               TOTAL OUT =  1859244672.0000                 TOTAL OUT =          13.1052

                IN - OUT =       -4864.0000                  IN - OUT =      -2.2030E-04

     PERCENT DISCREPANCY =          -0.00         PERCENT DISCREPANCY =          -0.00






         TIME SUMMARY AT END OF TIME STEP   30 IN STRESS PERIOD   38
                    SECONDS     MINUTES      HOURS       DAYS        YEARS
                    -----------------------------------------------------------
   TIME STEP LENGTH  87667.      1461.1      24.352      1.0147     2.77799E-03
 STRESS PERIOD TIME 2.63000E+06  43833.      730.56      30.440     8.33397E-02
         TOTAL TIME 9.73959E+07 1.62326E+06  27054.      1127.3      3.0863    
1
1
                            STRESS PERIOD NO.   39, LENGTH =   2630000.    
                            -----------------------------------------------

                              NUMBER OF TIME STEPS =    30

                               MULTIPLIER FOR DELT =     1.000

                            INITIAL TIME STEP SIZE =   87666.66    

 REUSING NON-PARAMETER GHB CELLS FROM LAST STRESS PERIOD

      2 GHB CELLS

 REUSING STREAM SEGMENT DATA FROM LAST STRESS PERIOD



            AREAL INFILTRATION RATE
 READING ON UNIT   19 WITH FORMAT: (FREE)              

            1           2           3           4           5           6           7           8           9          10
 ........................................................................................................................
   1   1.0000E-10  2.0000E-10   0.000       0.000       0.000       0.000       0.000       0.000       0.000       0.000    
   2   2.0000E-10  1.0000E-10  2.0000E-10   0.000       0.000      8.0000E-10  8.0000E-10  5.0000E-10   0.000       0.000    
   3    0.000      5.0000E-10  1.0000E-10  1.0000E-10  8.0000E-10  8.0000E-10  5.0000E-10  5.0000E-10   0.000       0.000    
   4   8.0000E-10  5.0000E-10  1.0000E-10  1.0000E-10  1.0000E-10  1.0000E-10  1.0000E-10  1.0000E-10  2.0000E-10   0.000    
   5   8.0000E-10  5.0000E-10  1.0000E-10  1.0000E-10  1.0000E-10  1.0000E-10  1.0000E-10  1.0000E-10  1.0000E-10  1.0000E-10
   6   8.0000E-10  5.0000E-10  5.0000E-10  2.0000E-10  2.0000E-10  1.0000E-10  1.0000E-10  1.0000E-10  1.0000E-10  5.0000E-10
   7   8.0000E-10  5.0000E-10  5.0000E-10  2.0000E-10  2.0000E-10  1.0000E-10  1.0000E-10  2.0000E-10  2.0000E-10   0.000    
   8    0.000      5.0000E-10  5.0000E-10  2.0000E-10  2.0000E-10  1.0000E-10  1.0000E-10  2.0000E-10  5.0000E-10   0.000    
   9    0.000      5.0000E-10  5.0000E-10  2.0000E-10  2.0000E-10  1.0000E-10  1.0000E-10  2.0000E-10  5.0000E-10   0.000    
  10    0.000      5.0000E-10  5.0000E-10  2.0000E-10  2.0000E-10  1.0000E-10  1.0000E-10  2.0000E-10  5.0000E-10  8.0000E-10
  11    0.000      1.0000E-10  1.0000E-10  1.0000E-10  1.0000E-10  1.0000E-10  1.0000E-10  2.0000E-10  5.0000E-10   0.000    
  12   1.0000E-10  1.0000E-10  1.0000E-10  1.0000E-10  1.0000E-10  1.0000E-10  1.0000E-10  1.0000E-10  2.0000E-10   0.000    
  13   1.0000E-10  1.0000E-10  2.0000E-10  2.0000E-10  2.0000E-10  2.0000E-10  2.0000E-10  1.0000E-10  1.0000E-10   0.000    
  14    0.000      2.0000E-10  5.0000E-10  5.0000E-10  5.0000E-10  5.0000E-10  5.0000E-10  2.0000E-10  1.0000E-10   0.000    
  15    0.000       0.000      8.0000E-10  8.0000E-10  8.0000E-10  8.0000E-10   0.000       0.000       0.000       0.000    

                  ET RATE =  5.000000E-10

 USING ET EXTINCTION DEPTH FROM PREVIOUS STRESS PERIOD. CURRENT PERIOD IS:      39

 USING EXTINCTION WATER CONTENT FROM PREVIOUS STRESS PERIOD. CURRENT PERIOD IS:      39

 USING AIR ENTRY PRESSURE FROM PREVIOUS STRESS PERIOD. CURRENT PERIOD IS:      39

 USING ROOT PRESSURE HEAD FROM PREVIOUS STRESS PERIOD. CURRENT PERIOD IS:      39

 USING ROOT ACTIVITY FROM PREVIOUS STRESS PERIOD. CURRENT PERIOD IS:      39

 PROCESSING AG STRESS PERIOD DATA

 READING AG STRESS PERIOD DATA

 READING IRRIGATION SEGMENT

 READING IRRIGATION WELL

 READING SUPPLEMENTAL WELL

 NO IRRPOND OR REUSING IRRPOND DATA FROM LAST STRESS PERIOD

 END PROCESSING AG STRESS PERIOD DATA OPTIONS
 
 SOLVING FOR HEAD 
                                                   Max.-Head-Change                         Max.-Flux-Residual
  Residual-Control   Outer-Iter.   Inner-Iter.     Column Row Layer    Maximum-Head-Change  Column Row Layer    Maximum-Flux-Residual          L2-NORM 
          0                 1           2             4    7     1       0.3525164136E-02       4    7    1         0.1845271650E+00      0.5314229055E+00
          0                 2           2             4    7     1      -0.3429025587E-03       4    7    1        -0.1845273112E-01      0.5313947389E-01
          0                 3           1             4    7     1       0.2335039113E-04       4    7    1         0.1291691583E-02      0.3719494601E-02

    ------------------------------------------------
       NWT REQUIRED            3 OUTER ITERATIONS 
       AND A TOTAL OF          5 INNER ITERATIONS.
    ------------------------------------------------

 NO OUTPUT CONTROL FOR STRESS PERIOD   39   TIME STEP    1
 
 SOLVING FOR HEAD 
                                                   Max.-Head-Change                         Max.-Flux-Residual
  Residual-Control   Outer-Iter.   Inner-Iter.     Column Row Layer    Maximum-Head-Change  Column Row Layer    Maximum-Flux-Residual          L2-NORM 
          0                 1           2             4    7     1       0.3499209992E-02       4    7    1         0.1831608811E+00      0.5287452841E+00
          0                 2           2             4    7     1      -0.3403779242E-03       4    7    1        -0.1831610244E-01      0.5287182544E-01
          0                 3           1             4    7     1       0.2317847332E-04       4    7    1         0.1282127592E-02      0.3700707555E-02

    ------------------------------------------------
       NWT REQUIRED            3 OUTER ITERATIONS 
       AND A TOTAL OF          5 INNER ITERATIONS.
    ------------------------------------------------

 NO OUTPUT CONTROL FOR STRESS PERIOD   39   TIME STEP    2
 
 SOLVING FOR HEAD 
                                                   Max.-Head-Change                         Max.-Flux-Residual
  Residual-Control   Outer-Iter.   Inner-Iter.     Column Row Layer    Maximum-Head-Change  Column Row Layer    Maximum-Flux-Residual          L2-NORM 
          0                 1           2             4    7     1       0.3473650504E-02       4    7    1         0.1818151860E+00      0.5229529510E+00
          0                 2           2             4    7     1      -0.3378916792E-03       4    7    1        -0.1818153267E-01      0.5228927198E-01
          0                 3           1             4    7     1       0.2300916933E-04       4    7    1         0.1272707705E-02      0.3660161422E-02

    ------------------------------------------------
       NWT REQUIRED            3 OUTER ITERATIONS 
       AND A TOTAL OF          5 INNER ITERATIONS.
    ------------------------------------------------

 NO OUTPUT CONTROL FOR STRESS PERIOD   39   TIME STEP    3
 
 SOLVING FOR HEAD 
                                                   Max.-Head-Change                         Max.-Flux-Residual
  Residual-Control   Outer-Iter.   Inner-Iter.     Column Row Layer    Maximum-Head-Change  Column Row Layer    Maximum-Flux-Residual          L2-NORM 
          0                 1           2             4    7     1       0.3448470044E-02       4    7    1         0.1804899534E+00      0.5200596464E+00
          0                 2           2             4    7     1      -0.3354423033E-03       4    7    1        -0.1804900915E-01      0.5200032328E-01
          0                 3           1             4    7     1       0.2284237598E-04       4    7    1         0.1263431060E-02      0.3639460996E-02

    ------------------------------------------------
       NWT REQUIRED            3 OUTER ITERATIONS 
       AND A TOTAL OF          5 INNER ITERATIONS.
    ------------------------------------------------

 NO OUTPUT CONTROL FOR STRESS PERIOD   39   TIME STEP    4
 
 SOLVING FOR HEAD 
                                                   Max.-Head-Change                         Max.-Flux-Residual
  Residual-Control   Outer-Iter.   Inner-Iter.     Column Row Layer    Maximum-Head-Change  Column Row Layer    Maximum-Flux-Residual          L2-NORM 
          0                 1           2             4    7     1       0.3423670253E-02       4    7    1         0.1791843729E+00      0.5173580521E+00
          0                 2           2             4    7     1      -0.3330299561E-03       4    7    1        -0.1791845085E-01      0.5173136806E-01
          0                 3           1             4    7     1       0.2267810390E-04       4    7    1         0.1254291964E-02      0.3620920321E-02

    ------------------------------------------------
       NWT REQUIRED            3 OUTER ITERATIONS 
       AND A TOTAL OF          5 INNER ITERATIONS.
    ------------------------------------------------

 NO OUTPUT CONTROL FOR STRESS PERIOD   39   TIME STEP    5
 
 SOLVING FOR HEAD 
                                                   Max.-Head-Change                         Max.-Flux-Residual
  Residual-Control   Outer-Iter.   Inner-Iter.     Column Row Layer    Maximum-Head-Change  Column Row Layer    Maximum-Flux-Residual          L2-NORM 
          0                 1           2             4    7     1       0.3398975113E-02       4    7    1         0.1778837560E+00      0.5147286173E+00
          0                 2           2             4    7     1      -0.3306277883E-03       4    7    1        -0.1778838890E-01      0.5146911342E-01
          0                 3           1             4    7     1       0.2251452504E-04       4    7    1         0.1245187620E-02      0.3602478319E-02

    ------------------------------------------------
       NWT REQUIRED            3 OUTER ITERATIONS 
       AND A TOTAL OF          5 INNER ITERATIONS.
    ------------------------------------------------

 NO OUTPUT CONTROL FOR STRESS PERIOD   39   TIME STEP    6
 
 SOLVING FOR HEAD 
                                                   Max.-Head-Change                         Max.-Flux-Residual
  Residual-Control   Outer-Iter.   Inner-Iter.     Column Row Layer    Maximum-Head-Change  Column Row Layer    Maximum-Flux-Residual          L2-NORM 
          0                 1           2             4    7     1       0.3374918942E-02       4    7    1         0.1766181129E+00      0.5121475400E+00
          0                 2           2             4    7     1      -0.3282877756E-03       4    7    1        -0.1766182436E-01      0.5121174953E-01
          0                 3           1             4    7     1       0.2235517908E-04       4    7    1         0.1236328106E-02      0.3584582901E-02

    ------------------------------------------------
       NWT REQUIRED            3 OUTER ITERATIONS 
       AND A TOTAL OF          5 INNER ITERATIONS.
    ------------------------------------------------

 NO OUTPUT CONTROL FOR STRESS PERIOD   39   TIME STEP    7
 
 SOLVING FOR HEAD 
                                                   Max.-Head-Change                         Max.-Flux-Residual
  Residual-Control   Outer-Iter.   Inner-Iter.     Column Row Layer    Maximum-Head-Change  Column Row Layer    Maximum-Flux-Residual          L2-NORM 
          0                 1           2             4    7     1       0.3350943717E-02       4    7    1         0.1753560515E+00      0.5096227478E+00
          0                 2           2             4    7     1      -0.3259556366E-03       4    7    1        -0.1753561798E-01      0.5095982302E-01
          0                 3           1             4    7     1       0.2219636942E-04       4    7    1         0.1227493671E-02      0.3566980467E-02

    ------------------------------------------------
       NWT REQUIRED            3 OUTER ITERATIONS 
       AND A TOTAL OF          5 INNER ITERATIONS.
    ------------------------------------------------

 NO OUTPUT CONTROL FOR STRESS PERIOD   39   TIME STEP    8
 
 SOLVING FOR HEAD 
                                                   Max.-Head-Change                         Max.-Flux-Residual
  Residual-Control   Outer-Iter.   Inner-Iter.     Column Row Layer    Maximum-Head-Change  Column Row Layer    Maximum-Flux-Residual          L2-NORM 
          0                 1           2             4    7     1       0.3327323828E-02       4    7    1         0.1741129612E+00      0.5071526169E+00
          0                 2           2             4    7     1      -0.3236580621E-03       4    7    1        -0.1741130873E-01      0.5071326841E-01
          0                 3           1             4    7     1       0.2203991300E-04       4    7    1         0.1218792025E-02      0.3549770534E-02

    ------------------------------------------------
       NWT REQUIRED            3 OUTER ITERATIONS 
       AND A TOTAL OF          5 INNER ITERATIONS.
    ------------------------------------------------

 NO OUTPUT CONTROL FOR STRESS PERIOD   39   TIME STEP    9
 
 SOLVING FOR HEAD 
                                                   Max.-Head-Change                         Max.-Flux-Residual
  Residual-Control   Outer-Iter.   Inner-Iter.     Column Row Layer    Maximum-Head-Change  Column Row Layer    Maximum-Flux-Residual          L2-NORM 
          0                 1           2             4    7     1       0.3304051515E-02       4    7    1         0.1728882946E+00      0.5047206536E+00
          0                 2           2             4    7     1      -0.3213942976E-03       4    7    1        -0.1728884184E-01      0.5047043990E-01
          0                 3           1             4    7     1       0.2188575942E-04       4    7    1         0.1210219352E-02      0.3532803879E-02

    ------------------------------------------------
       NWT REQUIRED            3 OUTER ITERATIONS 
       AND A TOTAL OF          5 INNER ITERATIONS.
    ------------------------------------------------

 NO OUTPUT CONTROL FOR STRESS PERIOD   39   TIME STEP   10
 
 SOLVING FOR HEAD 
                                                   Max.-Head-Change                         Max.-Flux-Residual
  Residual-Control   Outer-Iter.   Inner-Iter.     Column Row Layer    Maximum-Head-Change  Column Row Layer    Maximum-Flux-Residual          L2-NORM 
          0                 1           2             4    7     1       0.3280847700E-02       4    7    1         0.1716668751E+00      0.5023305714E+00
          0                 2           2             4    7     1      -0.3191371953E-03       4    7    1        -0.1716669965E-01      0.5023172299E-01
          0                 3           1             4    7     1       0.2173205882E-04       4    7    1         0.1201669392E-02      0.3516122105E-02

    ------------------------------------------------
       NWT REQUIRED            3 OUTER ITERATIONS 
       AND A TOTAL OF          5 INNER ITERATIONS.
    ------------------------------------------------

 NO OUTPUT CONTROL FOR STRESS PERIOD   39   TIME STEP   11
 
 SOLVING FOR HEAD 
                                                   Max.-Head-Change                         Max.-Flux-Residual
  Residual-Control   Outer-Iter.   Inner-Iter.     Column Row Layer    Maximum-Head-Change  Column Row Layer    Maximum-Flux-Residual          L2-NORM 
          0                 1           2             4    7     1       0.3258254037E-02       4    7    1         0.1704785559E+00      0.4999688416E+00
          0                 2           2             4    7     1      -0.3169394451E-03       4    7    1        -0.1704786753E-01      0.4999585957E-01
          0                 3           1             4    7     1       0.2158240061E-04       4    7    1         0.1193351145E-02      0.3499637024E-02

    ------------------------------------------------
       NWT REQUIRED            3 OUTER ITERATIONS 
       AND A TOTAL OF          5 INNER ITERATIONS.
    ------------------------------------------------

 NO OUTPUT CONTROL FOR STRESS PERIOD   39   TIME STEP   12
 
 SOLVING FOR HEAD 
                                                   Max.-Head-Change                         Max.-Flux-Residual
  Residual-Control   Outer-Iter.   Inner-Iter.     Column Row Layer    Maximum-Head-Change  Column Row Layer    Maximum-Flux-Residual          L2-NORM 
          0                 1           2             4    7     1       0.3235713451E-02       4    7    1         0.1692923234E+00      0.4976539971E+00
          0                 2           2             4    7     1      -0.3147468579E-03       4    7    1        -0.1692924408E-01      0.4976454965E-01
          0                 3           1             4    7     1       0.2143309315E-04       4    7    1         0.1185047492E-02      0.3483459475E-02

    ------------------------------------------------
       NWT REQUIRED            3 OUTER ITERATIONS 
       AND A TOTAL OF          5 INNER ITERATIONS.
    ------------------------------------------------

 NO OUTPUT CONTROL FOR STRESS PERIOD   39   TIME STEP   13
 
 SOLVING FOR HEAD 
                                                   Max.-Head-Change                         Max.-Flux-Residual
  Residual-Control   Outer-Iter.   Inner-Iter.     Column Row Layer    Maximum-Head-Change  Column Row Layer    Maximum-Flux-Residual          L2-NORM 
          0                 1           2             4    7     1       0.3213496048E-02       4    7    1         0.1681236175E+00      0.4953654645E+00
          0                 2           2             4    7     1      -0.3125857070E-03       4    7    1        -0.1681237327E-01      0.4953585152E-01
          0                 3           1             4    7     1       0.2128592663E-04       4    7    1         0.1176866524E-02      0.3467442912E-02

    ------------------------------------------------
       NWT REQUIRED            3 OUTER ITERATIONS 
       AND A TOTAL OF          5 INNER ITERATIONS.
    ------------------------------------------------

 NO OUTPUT CONTROL FOR STRESS PERIOD   39   TIME STEP   14
 
 SOLVING FOR HEAD 
                                                   Max.-Head-Change                         Max.-Flux-Residual
  Residual-Control   Outer-Iter.   Inner-Iter.     Column Row Layer    Maximum-Head-Change  Column Row Layer    Maximum-Flux-Residual          L2-NORM 
          0                 1           2             4    7     1       0.3191604551E-02       4    7    1         0.1669716682E+00      0.4931177647E+00
          0                 2           2             4    7     1      -0.3104562582E-03       4    7    1        -0.1669717813E-01      0.4931121553E-01
          0                 3           1             4    7     1       0.2114091928E-04       4    7    1         0.1168802870E-02      0.3451720174E-02

    ------------------------------------------------
       NWT REQUIRED            3 OUTER ITERATIONS 
       AND A TOTAL OF          5 INNER ITERATIONS.
    ------------------------------------------------

 NO OUTPUT CONTROL FOR STRESS PERIOD   39   TIME STEP   15
 
 SOLVING FOR HEAD 
                                                   Max.-Head-Change                         Max.-Flux-Residual
  Residual-Control   Outer-Iter.   Inner-Iter.     Column Row Layer    Maximum-Head-Change  Column Row Layer    Maximum-Flux-Residual          L2-NORM 
          0                 1           2             4    7     1       0.3170019548E-02       4    7    1         0.1658366168E+00      0.4908881103E+00
          0                 2           2             4    7     1      -0.3083566233E-03       4    7    1        -0.1658367281E-01      0.4908838350E-01
          0                 3           1             4    7     1       0.2099794188E-04       4    7    1         0.1160857490E-02      0.3436150837E-02

    ------------------------------------------------
       NWT REQUIRED            3 OUTER ITERATIONS 
       AND A TOTAL OF          5 INNER ITERATIONS.
    ------------------------------------------------

 NO OUTPUT CONTROL FOR STRESS PERIOD   39   TIME STEP   16
 
 SOLVING FOR HEAD 
                                                   Max.-Head-Change                         Max.-Flux-Residual
  Residual-Control   Outer-Iter.   Inner-Iter.     Column Row Layer    Maximum-Head-Change  Column Row Layer    Maximum-Flux-Residual          L2-NORM 
          0                 1           2             4    7     1       0.3148466733E-02       4    7    1         0.1647026817E+00      0.4886875484E+00
          0                 2           2             4    7     1      -0.3062601191E-03       4    7    1        -0.1647027910E-01      0.4886843332E-01
          0                 3           1             4    7     1       0.2085517749E-04       4    7    1         0.1152919928E-02      0.3420763778E-02

    ------------------------------------------------
       NWT REQUIRED            3 OUTER ITERATIONS 
       AND A TOTAL OF          5 INNER ITERATIONS.
    ------------------------------------------------

 NO OUTPUT CONTROL FOR STRESS PERIOD   39   TIME STEP   17
 
 SOLVING FOR HEAD 
                                                   Max.-Head-Change                         Max.-Flux-Residual
  Residual-Control   Outer-Iter.   Inner-Iter.     Column Row Layer    Maximum-Head-Change  Column Row Layer    Maximum-Flux-Residual          L2-NORM 
          0                 1           2             4    7     1       0.3127496127E-02       4    7    1         0.1635999656E+00      0.4865228977E+00
          0                 2           2             4    7     1      -0.3042202484E-03       4    7    1        -0.1636000731E-01      0.4865208102E-01
          0                 3           1             4    7     1       0.2071627016E-04       4    7    1         0.1145200908E-02      0.3405639922E-02

    ------------------------------------------------
       NWT REQUIRED            3 OUTER ITERATIONS 
       AND A TOTAL OF          5 INNER ITERATIONS.
    ------------------------------------------------

 NO OUTPUT CONTROL FOR STRESS PERIOD   39   TIME STEP   18
 
 SOLVING FOR HEAD 
                                                   Max.-Head-Change                         Max.-Flux-Residual
  Residual-Control   Outer-Iter.   Inner-Iter.     Column Row Layer    Maximum-Head-Change  Column Row Layer    Maximum-Flux-Residual          L2-NORM 
          0                 1           2             4    7     1       0.3106544488E-02       4    7    1         0.1624978862E+00      0.4843753988E+00
          0                 2           2             4    7     1      -0.3021822223E-03       4    7    1        -0.1624979918E-01      0.4843735686E-01
          0                 3           1             4    7     1       0.2057748779E-04       4    7    1         0.1137486322E-02      0.3390624370E-02

    ------------------------------------------------
       NWT REQUIRED            3 OUTER ITERATIONS 
       AND A TOTAL OF          5 INNER ITERATIONS.
    ------------------------------------------------

 NO OUTPUT CONTROL FOR STRESS PERIOD   39   TIME STEP   19
 
 SOLVING FOR HEAD 
                                                   Max.-Head-Change                         Max.-Flux-Residual
  Residual-Control   Outer-Iter.   Inner-Iter.     Column Row Layer    Maximum-Head-Change  Column Row Layer    Maximum-Flux-Residual          L2-NORM 
          0                 1           2             4    7     1       0.3085889108E-02       4    7    1         0.1614115653E+00      0.4822555753E+00
          0                 2           2             4    7     1      -0.3001730144E-03       4    7    1        -0.1614116691E-01      0.4822485180E-01
          0                 3           1             4    7     1       0.2044066816E-04       4    7    1         0.1129882072E-02      0.3376335920E-02

    ------------------------------------------------
       NWT REQUIRED            3 OUTER ITERATIONS 
       AND A TOTAL OF          5 INNER ITERATIONS.
    ------------------------------------------------

 NO OUTPUT CONTROL FOR STRESS PERIOD   39   TIME STEP   20
 
 SOLVING FOR HEAD 
                                                   Max.-Head-Change                         Max.-Flux-Residual
  Residual-Control   Outer-Iter.   Inner-Iter.     Column Row Layer    Maximum-Head-Change  Column Row Layer    Maximum-Flux-Residual          L2-NORM 
          0                 1           2             4    7     1       0.3065522096E-02       4    7    1         0.1603406052E+00      0.4801552930E+00
          0                 2           2             4    7     1      -0.2981918570E-03       4    7    1        -0.1603407072E-01      0.4801541934E-01
          0                 3           1             4    7     1       0.2030575895E-04       4    7    1         0.1122385338E-02      0.3361007093E-02

    ------------------------------------------------
       NWT REQUIRED            3 OUTER ITERATIONS 
       AND A TOTAL OF          5 INNER ITERATIONS.
    ------------------------------------------------

 NO OUTPUT CONTROL FOR STRESS PERIOD   39   TIME STEP   21
 
 SOLVING FOR HEAD 
                                                   Max.-Head-Change                         Max.-Flux-Residual
  Residual-Control   Outer-Iter.   Inner-Iter.     Column Row Layer    Maximum-Head-Change  Column Row Layer    Maximum-Flux-Residual          L2-NORM 
          0                 1           2             4    7     1       0.3045435617E-02       4    7    1         0.1592845965E+00      0.4780828151E+00
          0                 2           2             4    7     1      -0.2962379881E-03       4    7    1        -0.1592846969E-01      0.4780820940E-01
          0                 3           1             4    7     1       0.2017270786E-04       4    7    1         0.1114993274E-02      0.3346569851E-02

    ------------------------------------------------
       NWT REQUIRED            3 OUTER ITERATIONS 
       AND A TOTAL OF          5 INNER ITERATIONS.
    ------------------------------------------------

 NO OUTPUT CONTROL FOR STRESS PERIOD   39   TIME STEP   22
 
 SOLVING FOR HEAD 
                                                   Max.-Head-Change                         Max.-Flux-Residual
  Residual-Control   Outer-Iter.   Inner-Iter.     Column Row Layer    Maximum-Head-Change  Column Row Layer    Maximum-Flux-Residual          L2-NORM 
          0                 1           2             4    7     1       0.3025625595E-02       4    7    1         0.1582431332E+00      0.4760359877E+00
          0                 2           2             4    7     1      -0.2943110106E-03       4    7    1        -0.1582432319E-01      0.4760354729E-01
          0                 3           1             4    7     1       0.2004148815E-04       4    7    1         0.1107703025E-02      0.3332245736E-02

    ------------------------------------------------
       NWT REQUIRED            3 OUTER ITERATIONS 
       AND A TOTAL OF          5 INNER ITERATIONS.
    ------------------------------------------------

 NO OUTPUT CONTROL FOR STRESS PERIOD   39   TIME STEP   23
 
 SOLVING FOR HEAD 
                                                   Max.-Head-Change                         Max.-Flux-Residual
  Residual-Control   Outer-Iter.   Inner-Iter.     Column Row Layer    Maximum-Head-Change  Column Row Layer    Maximum-Flux-Residual          L2-NORM 
          0                 1           2             4    7     1       0.3005813762E-02       4    7    1         0.1572012283E+00      0.4740035725E+00
          0                 2           2             4    7     1      -0.2923838571E-03       4    7    1        -0.1572013254E-01      0.4740032489E-01
          0                 3           1             4    7     1       0.1991025590E-04       4    7    1         0.1100409676E-02      0.3318023468E-02

    ------------------------------------------------
       NWT REQUIRED            3 OUTER ITERATIONS 
       AND A TOTAL OF          5 INNER ITERATIONS.
    ------------------------------------------------

 NO OUTPUT CONTROL FOR STRESS PERIOD   39   TIME STEP   24
 
 SOLVING FOR HEAD 
                                                   Max.-Head-Change                         Max.-Flux-Residual
  Residual-Control   Outer-Iter.   Inner-Iter.     Column Row Layer    Maximum-Head-Change  Column Row Layer    Maximum-Flux-Residual          L2-NORM 
          0                 1           2             4    7     1       0.2986548163E-02       4    7    1         0.1561887808E+00      0.4720016027E+00
          0                 2           2             4    7     1      -0.2905098375E-03       4    7    1        -0.1561888765E-01      0.4720014170E-01
          0                 3           1             4    7     1       0.1978264191E-04       4    7    1         0.1093322513E-02      0.3304007905E-02

    ------------------------------------------------
       NWT REQUIRED            3 OUTER ITERATIONS 
       AND A TOTAL OF          5 INNER ITERATIONS.
    ------------------------------------------------

 NO OUTPUT CONTROL FOR STRESS PERIOD   39   TIME STEP   25
 
 SOLVING FOR HEAD 
                                                   Max.-Head-Change                         Max.-Flux-Residual
  Residual-Control   Outer-Iter.   Inner-Iter.     Column Row Layer    Maximum-Head-Change  Column Row Layer    Maximum-Flux-Residual          L2-NORM 
          0                 1           2             4    7     1       0.2967267205E-02       4    7    1         0.1551751034E+00      0.4700107607E+00
          0                 2           2             4    7     1      -0.2886343232E-03       4    7    1        -0.1551751971E-01      0.4700106936E-01
          0                 3           1             4    7     1       0.1965492662E-04       4    7    1         0.1086226763E-02      0.3290083919E-02

    ------------------------------------------------
       NWT REQUIRED            3 OUTER ITERATIONS 
       AND A TOTAL OF          5 INNER ITERATIONS.
    ------------------------------------------------

 NO OUTPUT CONTROL FOR STRESS PERIOD   39   TIME STEP   26
 
 SOLVING FOR HEAD 
                                                   Max.-Head-Change                         Max.-Flux-Residual
  Residual-Control   Outer-Iter.   Inner-Iter.     Column Row Layer    Maximum-Head-Change  Column Row Layer    Maximum-Flux-Residual          L2-NORM 
          0                 1           2             4    7     1       0.2948248420E-02       4    7    1         0.1541754054E+00      0.4680387840E+00
          0                 2           2             4    7     1      -0.2867843120E-03       4    7    1        -0.1541754980E-01      0.4680387190E-01
          0                 3           1             4    7     1       0.1952894757E-04       4    7    1         0.1079228858E-02      0.3276288821E-02

    ------------------------------------------------
       NWT REQUIRED            3 OUTER ITERATIONS 
       AND A TOTAL OF          5 INNER ITERATIONS.
    ------------------------------------------------

 NO OUTPUT CONTROL FOR STRESS PERIOD   39   TIME STEP   27
 
 SOLVING FOR HEAD 
                                                   Max.-Head-Change                         Max.-Flux-Residual
  Residual-Control   Outer-Iter.   Inner-Iter.     Column Row Layer    Maximum-Head-Change  Column Row Layer    Maximum-Flux-Residual          L2-NORM 
          0                 1           2             4    7     1       0.2929489460E-02       4    7    1         0.1531893008E+00      0.4660955548E+00
          0                 2           2             4    7     1      -0.2849595749E-03       4    7    1        -0.1531893919E-01      0.4660954415E-01
          0                 3           1             4    7     1       0.1940469008E-04       4    7    1         0.1072326126E-02      0.3262660006E-02

    ------------------------------------------------
       NWT REQUIRED            3 OUTER ITERATIONS 
       AND A TOTAL OF          5 INNER ITERATIONS.
    ------------------------------------------------

 NO OUTPUT CONTROL FOR STRESS PERIOD   39   TIME STEP   28
 
 SOLVING FOR HEAD 
                                                   Max.-Head-Change                         Max.-Flux-Residual
  Residual-Control   Outer-Iter.   Inner-Iter.     Column Row Layer    Maximum-Head-Change  Column Row Layer    Maximum-Flux-Residual          L2-NORM 
          0                 1           2             4    7     1       0.2910979973E-02       4    7    1         0.1522166679E+00      0.4641659223E+00
          0                 2           2             4    7     1      -0.2831591041E-03       4    7    1        -0.1522167574E-01      0.4641657511E-01
          0                 3           1             4    7     1       0.1928208433E-04       4    7    1         0.1065517683E-02      0.3249140476E-02

    ------------------------------------------------
       NWT REQUIRED            3 OUTER ITERATIONS 
       AND A TOTAL OF          5 INNER ITERATIONS.
    ------------------------------------------------

 NO OUTPUT CONTROL FOR STRESS PERIOD   39   TIME STEP   29
 
 SOLVING FOR HEAD 
                                                   Max.-Head-Change                         Max.-Flux-Residual
  Residual-Control   Outer-Iter.   Inner-Iter.     Column Row Layer    Maximum-Head-Change  Column Row Layer    Maximum-Flux-Residual          L2-NORM 
          0                 1           2             4   13     1       0.6545546246E-02       4   13    1         0.3759023399E+00      0.8210601702E+00
          0                 2           2             4   13     1      -0.6304123916E-03       4   13    1        -0.3722378738E-01      0.8065164783E-01
          0                 3           1             4   13     1       0.4234655415E-04       4   13    1         0.2570838426E-02      0.5510648394E-02

    ------------------------------------------------
       NWT REQUIRED            3 OUTER ITERATIONS 
       AND A TOTAL OF          5 INNER ITERATIONS.
    ------------------------------------------------

 NO OUTPUT CONTROL FOR STRESS PERIOD   39   TIME STEP   30



 STREAM LISTING     PERIOD     39   STEP       30

 LAYER ROW COL. STREAM  RCH.  FLOW INTO     FLOW TO   FLOW OUT OF   OVRLND.     DIRECT     STREAM       STREAM     STREAM     STREAM   STREAMBED  STREAMBED
                SEG.NO.  NO.  STRM. RCH.    AQUIFER    STRM. RCH.    RUNOFF     PRECIP       ET          HEAD       DEPTH      WIDTH   CONDCTNC.   GRADIENT

   1    1    1     1     1    3.2750E+01  2.7790E-01   3.2473E+01  0.000E+00  0.000E+00  0.000E+00  1.09432E+03  1.273E+00  1.445E+01  6.503E-02  1.424E+00
   1    2    2     1     2    3.2473E+01  4.3019E-01   3.2042E+01  0.000E+00  0.000E+00  0.000E+00  1.08933E+03  1.270E+00  1.439E+01  1.007E-01  1.423E+00
   1    3    3     1     3    3.2042E+01  3.6669E-01   3.1676E+01  0.000E+00  0.000E+00  0.000E+00  1.08369E+03  1.267E+00  1.432E+01  8.594E-02  1.422E+00
   1    3    4     1     4    3.1676E+01  3.3752E-01   3.1338E+01  0.000E+00  0.000E+00  0.000E+00  1.07867E+03  1.264E+00  1.426E+01  7.916E-02  1.421E+00
   1    4    5     2     1    2.9338E+01  3.3732E-01   2.9001E+01  0.000E+00  0.000E+00  0.000E+00  1.07326E+03  1.325E+00  1.200E+01  7.800E-02  1.442E+00
   1    5    6     2     2    2.9001E+01  2.5899E-01   2.8742E+01  0.000E+00  0.000E+00  0.000E+00  1.06783E+03  1.317E+00  1.200E+01  6.000E-02  1.439E+00
   1    6    6     2     3    2.8742E+01  2.5857E-01   2.8483E+01  0.000E+00  0.000E+00  0.000E+00  1.06310E+03  1.309E+00  1.200E+01  6.000E-02  1.436E+00
   1    7    6     2     4    2.8483E+01  2.5814E-01   2.8225E+01  0.000E+00  0.000E+00  0.000E+00  1.05838E+03  1.302E+00  1.200E+01  6.000E-02  1.434E+00
   1    8    6     2     5    2.8225E+01  2.5771E-01   2.7967E+01  0.000E+00  0.000E+00  0.000E+00  1.05365E+03  1.295E+00  1.200E+01  6.000E-02  1.432E+00
   1    3    5     3     1    2.0000E+00  2.8252E-01   1.7175E+00  0.000E+00  0.000E+00  0.000E+00  1.07555E+03  1.909E+00  9.636E+00  7.227E-02  1.955E+00
   1    3    6     3     2    1.7175E+00  2.4905E-01   1.4684E+00  0.000E+00  0.000E+00  0.000E+00  1.07264E+03  1.727E+00  8.909E+00  6.682E-02  1.864E+00
   1    3    7     3     3    1.4684E+00  1.9718E-01   1.2712E+00  0.000E+00  0.000E+00  0.000E+00  1.06987E+03  1.555E+00  8.218E+00  5.547E-02  1.777E+00
   1    4    8     3     4    1.2712E+00  2.2567E-01   1.0456E+00  0.000E+00  0.000E+00  0.000E+00  1.06682E+03  1.364E+00  7.455E+00  6.709E-02  1.682E+00
   1    5    8     3     5    1.0456E+00  1.5790E-01   8.8768E-01  0.000E+00  0.000E+00  0.000E+00  1.06362E+03  1.164E+00  6.655E+00  4.991E-02  1.582E+00
   1    6    8     3     6    8.8768E-01  5.5980E-02   8.3170E-01  0.000E+00  0.000E+00  0.000E+00  1.06158E+03  1.036E+00  6.145E+00  1.844E-02  1.518E+00
   1    5   10     4     1    1.0000E+01  9.0919E-02   9.9091E+00  0.000E+00  0.000E+00  0.000E+00  1.07836E+03  6.368E-01  1.000E+01  2.500E-02  1.212E+00
   1    5    9     4     2    9.9091E+00  1.8158E-01   9.7275E+00  0.000E+00  0.000E+00  0.000E+00  1.07154E+03  6.315E-01  1.000E+01  5.000E-02  1.211E+00
   1    6    8     4     3    9.7275E+00  1.2689E-01   9.6006E+00  0.000E+00  0.000E+00  0.000E+00  1.06381E+03  6.256E-01  1.000E+01  3.500E-02  1.209E+00
   1    6    8     5     1    1.0432E+01  2.2686E-01   1.0205E+01  0.000E+00  0.000E+00  0.000E+00  1.05868E+03  6.790E-01  1.542E+01  6.166E-02  1.226E+00
   1    7    7     5     2    1.0205E+01  2.7894E-01   9.9265E+00  0.000E+00  0.000E+00  0.000E+00  1.05417E+03  6.732E-01  1.519E+01  7.594E-02  1.224E+00
   1    8    7     5     3    9.9265E+00  1.9221E-01   9.7343E+00  0.000E+00  0.000E+00  0.000E+00  1.04992E+03  6.676E-01  1.497E+01  5.241E-02  1.223E+00
   1    8    6     5     4    9.7343E+00  1.3577E-01   9.5985E+00  0.000E+00  0.000E+00  0.000E+00  1.04691E+03  6.637E-01  1.482E+01  3.706E-02  1.221E+00
   1    9    6     6     1    3.7566E+01  2.7334E-01   3.7293E+01  0.000E+00  0.000E+00  0.000E+00  1.04428E+03  1.556E+00  1.200E+01  6.000E-02  1.519E+00
   1   10    7     6     2    3.7293E+01  2.7293E-01   3.7020E+01  0.000E+00  0.000E+00  0.000E+00  1.03973E+03  1.549E+00  1.200E+01  6.000E-02  1.516E+00
   1   11    7     6     3    3.7020E+01  2.7252E-01   3.6747E+01  0.000E+00  0.000E+00  0.000E+00  1.03518E+03  1.542E+00  1.200E+01  6.000E-02  1.514E+00
   1   12    7     6     4    3.6747E+01  2.7211E-01   3.6475E+01  0.000E+00  0.000E+00  0.000E+00  1.03063E+03  1.535E+00  1.200E+01  6.000E-02  1.512E+00
   1   13    7     6     5    3.6475E+01  1.1468E-02   3.6464E+01  0.000E+00  0.000E+00  0.000E+00  1.02744E+03  1.532E+00  1.200E+01  2.400E-02  1.593E-01
   1   14    9     7     1    1.5000E+02  1.3467E+00   1.4865E+02  0.000E+00  0.000E+00  0.000E+00  1.03987E+03  2.288E+00  5.529E+01  5.593E-01  8.026E-01
   1   13    8     7     2    1.4865E+02  1.8698E+00   1.4678E+02  0.000E+00  0.000E+00  0.000E+00  1.03478E+03  2.279E+00  5.526E+01  6.148E-01  1.014E+00
   1   13    7     7     3    1.4678E+02  1.5226E+00   1.4526E+02  0.000E+00  0.000E+00  0.000E+00  1.02969E+03  2.270E+00  5.522E+01  5.584E-01  9.089E-01
   1   13    6     8     1    1.8172E+02  1.0282E+00   1.8070E+02  0.000E+00  0.000E+00  0.000E+00  1.02490E+03  3.024E+00  4.384E+01  4.468E-01  7.671E-01
   1   13    5     8     2    1.8070E+02  2.5370E-01   1.8044E+02  0.000E+00  0.000E+00  0.000E+00  1.01864E+03  3.020E+00  4.379E+01  4.462E-01  1.895E-01
   1   13    4     8     3    1.8044E+02 -2.0048E+00   1.8245E+02  0.000E+00  0.000E+00  0.000E+00  1.01240E+03  3.025E+00  4.387E+01  4.470E+00 -1.495E-01
   1   13    3     8     4    1.8245E+02 -3.2944E+00   1.8574E+02  0.000E+00  0.000E+00  0.000E+00  1.00617E+03  3.042E+00  4.410E+01  4.494E+00 -2.443E-01
   1   13    2     8     5    1.8574E+02 -2.2304E+00   1.8797E+02  0.000E+00  0.000E+00  0.000E+00  9.99934E+02  3.059E+00  4.435E+01  4.520E+00 -1.645E-01
   1   13    1     8     6    1.8797E+02 -1.7878E+00   1.8976E+02  0.000E+00  0.000E+00  0.000E+00  9.94946E+02  3.071E+00  4.453E+01  2.723E+00 -2.189E-01
   1    8    6     9     1    0.0000E+00  0.0000E+00   0.0000E+00  0.000E+00  0.000E+00  0.000E+00  1.07875E+03  0.000E+00  4.000E+00  0.000E+00  1.000E+00
   1    8    5     9     2    0.0000E+00  0.0000E+00   0.0000E+00  0.000E+00  0.000E+00  0.000E+00  1.07825E+03  0.000E+00  4.000E+00  0.000E+00  1.000E+00





UNSATURATED ZONE PACKAGE VOLUMETRIC BUDGET FOR  TIME STEP    30 STRESS PERIOD   39
  ------------------------------------------------------------------------------



     CUMULATIVE VOLUMES      L**3       RATES FOR THIS TIME STEP      L**3/T
     ------------------                 ------------------------

           IN:                                      IN:
           ---                                      ---
        INFILTRATION =  1429866454.7021          INFILTRATION =           0.8475

          OUT:                                     OUT:
          ----                                     ----
              UZF ET =  1289044847.3922                UZF ET =           0.7500
        UZF RECHARGE =       73224.0000          UZF RECHARGE =       0.0000E+00

            IN - OUT =   140748383.3100              IN - OUT =       9.7500E-02

          STORAGE:                                 STORAGE:
          --------                                 --------
      STORAGE CHANGE =   140749740.0502        STORAGE CHANGE =       9.7500E-02

 PERCENT DISCREPANCY IS DIFFERENCE BETWEEN IN-OUT MINUS CHANGE IN STORAGE
 DIVIDED BY THE AVERAGE OF IN AND OUT TIMES 100

 PERCENT DISCREPANCY =          -0.00     PERCENT DISCREPANCY =           0.00






1
  VOLUMETRIC BUDGET FOR AGRICULTURAL FIELDS AT  END OF TIME STEP   30, STRESS PERIOD  39
  ------------------------------------------------------------------------------

     CUMULATIVE VOLUMES      L**3       RATES FOR THIS TIME STEP      L**3/T
     ------------------                 ------------------------

           IN:                                      IN:
           ---                                      ---
               AG WELLS  =   381194528.0000                 AG WELLS  =           0.0000
      DIVERSION SEGMENTS =   963956736.0000        DIVERSION SEGMENTS =           0.0000
       IRRIGATION PONDS  =           0.0000         IRRIGATION PONDS  =           0.0000
           GW IRRIGATION =           0.0000             GW IRRIGATION =           0.0000
           SW IRRIGATION =           0.0000             SW IRRIGATION =           0.0000
        SYSTEM LOSSES GW =           0.0000          SYSTEM LOSSES GW =           0.0000
        SYSTEM LOSSES SW =           0.0000          SYSTEM LOSSES SW =           0.0000

                TOTAL IN =  1345151232.0000                  TOTAL IN =           0.0000

          OUT:                                     OUT:
          ----                                     ----
               AG WELLS  =           0.0000                 AG WELLS  =           0.0000
      DIVERSION SEGMENTS =           0.0000        DIVERSION SEGMENTS =           0.0000
       IRRIGATION PONDS  =           0.0000         IRRIGATION PONDS  =           0.0000
           GW IRRIGATION =   381194528.0000             GW IRRIGATION =           0.0000
           SW IRRIGATION =   963976704.0000             SW IRRIGATION =           0.0000
        SYSTEM LOSSES GW =           0.0000          SYSTEM LOSSES GW =           0.0000
        SYSTEM LOSSES SW =           0.0000          SYSTEM LOSSES SW =           0.0000

               TOTAL OUT =  1345171200.0000                 TOTAL OUT =           0.0000

                IN - OUT =      -19968.0000                  IN - OUT =           0.0000

     PERCENT DISCREPANCY =          -0.00         PERCENT DISCREPANCY =           0.00



1
  VOLUMETRIC BUDGET FOR ENTIRE MODEL AT END OF TIME STEP   30, STRESS PERIOD  39
  ------------------------------------------------------------------------------

     CUMULATIVE VOLUMES      L**3       RATES FOR THIS TIME STEP      L**3/T
     ------------------                 ------------------------

           IN:                                      IN:
           ---                                      ---
             STORAGE     =   671233088.0000               STORAGE     =           0.9403
       CONSTANT HEAD     =           0.0000         CONSTANT HEAD     =           0.0000
     HEAD DEP BOUNDS     =    28597120.0000       HEAD DEP BOUNDS     =           0.2865
      STREAM LEAKAGE     =  1193547648.0000        STREAM LEAKAGE     =          12.3079
        UZF RECHARGE     =       73223.9531          UZF RECHARGE     =           0.0000
               GW ET     =           0.0000                 GW ET     =           0.0000
     SURFACE LEAKAGE     =           0.0000       SURFACE LEAKAGE     =           0.0000
           AG WELLS      =           0.0000             AG WELLS      =           0.0000

                TOTAL IN =  1893451008.0000                  TOTAL IN =          13.5347

          OUT:                                     OUT:
          ----                                     ----
             STORAGE     =   405921920.0000               STORAGE     =           3.9292
       CONSTANT HEAD     =           0.0000         CONSTANT HEAD     =           0.0000
     HEAD DEP BOUNDS     =    29063328.0000       HEAD DEP BOUNDS     =           0.2889
      STREAM LEAKAGE     =  1074294144.0000        STREAM LEAKAGE     =           9.3174
        UZF RECHARGE     =           0.0000          UZF RECHARGE     =           0.0000
               GW ET     =     2982784.2500                 GW ET     =           0.0000
     SURFACE LEAKAGE     =           0.0000       SURFACE LEAKAGE     =           0.0000
           AG WELLS      =   381194528.0000             AG WELLS      =           0.0000

               TOTAL OUT =  1893456640.0000                 TOTAL OUT =          13.5355

                IN - OUT =       -5632.0000                  IN - OUT =      -8.4782E-04

     PERCENT DISCREPANCY =          -0.00         PERCENT DISCREPANCY =          -0.01






         TIME SUMMARY AT END OF TIME STEP   30 IN STRESS PERIOD   39
                    SECONDS     MINUTES      HOURS       DAYS        YEARS
                    -----------------------------------------------------------
   TIME STEP LENGTH  87667.      1461.1      24.352      1.0147     2.77799E-03
 STRESS PERIOD TIME 2.63000E+06  43833.      730.56      30.440     8.33397E-02
         TOTAL TIME 1.00026E+08 1.66710E+06  27785.      1157.7      3.1696    
1
1
                            STRESS PERIOD NO.   40, LENGTH =   2630000.    
                            -----------------------------------------------

                              NUMBER OF TIME STEPS =    30

                               MULTIPLIER FOR DELT =     1.000

                            INITIAL TIME STEP SIZE =   87666.66    

 REUSING NON-PARAMETER GHB CELLS FROM LAST STRESS PERIOD

      2 GHB CELLS

 REUSING STREAM SEGMENT DATA FROM LAST STRESS PERIOD



            AREAL INFILTRATION RATE
 READING ON UNIT   19 WITH FORMAT: (FREE)              

            1           2           3           4           5           6           7           8           9          10
 ........................................................................................................................
   1   1.0000E-10  2.0000E-10   0.000       0.000       0.000       0.000       0.000       0.000       0.000       0.000    
   2   2.0000E-10  1.0000E-10  2.0000E-10   0.000       0.000      8.0000E-10  8.0000E-10  5.0000E-10   0.000       0.000    
   3    0.000      5.0000E-10  1.0000E-10  1.0000E-10  8.0000E-10  8.0000E-10  5.0000E-10  5.0000E-10   0.000       0.000    
   4   8.0000E-10  5.0000E-10  1.0000E-10  1.0000E-10  1.0000E-10  1.0000E-10  1.0000E-10  1.0000E-10  2.0000E-10   0.000    
   5   8.0000E-10  5.0000E-10  1.0000E-10  1.0000E-10  1.0000E-10  1.0000E-10  1.0000E-10  1.0000E-10  1.0000E-10  1.0000E-10
   6   8.0000E-10  5.0000E-10  5.0000E-10  2.0000E-10  2.0000E-10  1.0000E-10  1.0000E-10  1.0000E-10  1.0000E-10  5.0000E-10
   7   8.0000E-10  5.0000E-10  5.0000E-10  2.0000E-10  2.0000E-10  1.0000E-10  1.0000E-10  2.0000E-10  2.0000E-10   0.000    
   8    0.000      5.0000E-10  5.0000E-10  2.0000E-10  2.0000E-10  1.0000E-10  1.0000E-10  2.0000E-10  5.0000E-10   0.000    
   9    0.000      5.0000E-10  5.0000E-10  2.0000E-10  2.0000E-10  1.0000E-10  1.0000E-10  2.0000E-10  5.0000E-10   0.000    
  10    0.000      5.0000E-10  5.0000E-10  2.0000E-10  2.0000E-10  1.0000E-10  1.0000E-10  2.0000E-10  5.0000E-10  8.0000E-10
  11    0.000      1.0000E-10  1.0000E-10  1.0000E-10  1.0000E-10  1.0000E-10  1.0000E-10  2.0000E-10  5.0000E-10   0.000    
  12   1.0000E-10  1.0000E-10  1.0000E-10  1.0000E-10  1.0000E-10  1.0000E-10  1.0000E-10  1.0000E-10  2.0000E-10   0.000    
  13   1.0000E-10  1.0000E-10  2.0000E-10  2.0000E-10  2.0000E-10  2.0000E-10  2.0000E-10  1.0000E-10  1.0000E-10   0.000    
  14    0.000      2.0000E-10  5.0000E-10  5.0000E-10  5.0000E-10  5.0000E-10  5.0000E-10  2.0000E-10  1.0000E-10   0.000    
  15    0.000       0.000      8.0000E-10  8.0000E-10  8.0000E-10  8.0000E-10   0.000       0.000       0.000       0.000    

                  ET RATE =  5.000000E-10

 USING ET EXTINCTION DEPTH FROM PREVIOUS STRESS PERIOD. CURRENT PERIOD IS:      40

 USING EXTINCTION WATER CONTENT FROM PREVIOUS STRESS PERIOD. CURRENT PERIOD IS:      40

 USING AIR ENTRY PRESSURE FROM PREVIOUS STRESS PERIOD. CURRENT PERIOD IS:      40

 USING ROOT PRESSURE HEAD FROM PREVIOUS STRESS PERIOD. CURRENT PERIOD IS:      40

 USING ROOT ACTIVITY FROM PREVIOUS STRESS PERIOD. CURRENT PERIOD IS:      40

 PROCESSING AG STRESS PERIOD DATA

 READING AG STRESS PERIOD DATA

 READING IRRIGATION SEGMENT

 READING IRRIGATION WELL

 READING SUPPLEMENTAL WELL

 NO IRRPOND OR REUSING IRRPOND DATA FROM LAST STRESS PERIOD

 END PROCESSING AG STRESS PERIOD DATA OPTIONS
 
 SOLVING FOR HEAD 
                                                   Max.-Head-Change                         Max.-Flux-Residual
  Residual-Control   Outer-Iter.   Inner-Iter.     Column Row Layer    Maximum-Head-Change  Column Row Layer    Maximum-Flux-Residual          L2-NORM 
          0                 1           2             4   13     1       0.2224329805E-01       4   13    1         0.1283570855E+01      0.2346256836E+01
          0                 2           2             4   13     1      -0.2139663357E-02       4   13    1        -0.1269539243E+00      0.2279052259E+00
          0                 3           2             4   13     1       0.1434502991E-03       4   13    1         0.8751271069E-02      0.1532599733E-01
          0                 4           1             4   13     1      -0.5553218256E-05       4   13    1        -0.3483460159E-03      0.5864767258E-03

    ------------------------------------------------
       NWT REQUIRED            4 OUTER ITERATIONS 
       AND A TOTAL OF          7 INNER ITERATIONS.
    ------------------------------------------------

 NO OUTPUT CONTROL FOR STRESS PERIOD   40   TIME STEP    1
 
 SOLVING FOR HEAD 
                                                   Max.-Head-Change                         Max.-Flux-Residual
  Residual-Control   Outer-Iter.   Inner-Iter.     Column Row Layer    Maximum-Head-Change  Column Row Layer    Maximum-Flux-Residual          L2-NORM 
          0                 1           2             4   13     1       0.2004893341E-01       4   13    1         0.1156272290E+01      0.2172875830E+01
          0                 2           2             4   13     1      -0.1928522490E-02       4   13    1        -0.1143590759E+00      0.2111998053E+00
          0                 3           2             4   13     1       0.1292922472E-03       4   13    1         0.7882858679E-02      0.1421560906E-01
          0                 4           1             4   13     1      -0.5020774173E-05       4   13    1        -0.3147544312E-03      0.5458973090E-03

    ------------------------------------------------
       NWT REQUIRED            4 OUTER ITERATIONS 
       AND A TOTAL OF          7 INNER ITERATIONS.
    ------------------------------------------------

 NO OUTPUT CONTROL FOR STRESS PERIOD   40   TIME STEP    2
 
 SOLVING FOR HEAD 
                                                   Max.-Head-Change                         Max.-Flux-Residual
  Residual-Control   Outer-Iter.   Inner-Iter.     Column Row Layer    Maximum-Head-Change  Column Row Layer    Maximum-Flux-Residual          L2-NORM 
          0                 1           2             2   13     1       0.1809452055E-01       4   13    1         0.1042203221E+01      0.2016761423E+01
          0                 2           2             4   13     1      -0.1739258127E-02       4   13    1        -0.1030728291E+00      0.1961681211E+00
          0                 3           1             4   13     1       0.1165950168E-03       4   13    1         0.7104300385E-02      0.1321811252E-01
          0                 4           1             4   13     1      -0.4523340738E-05       4   13    1        -0.2833947046E-03      0.5083537227E-03

    ------------------------------------------------
       NWT REQUIRED            4 OUTER ITERATIONS 
       AND A TOTAL OF          6 INNER ITERATIONS.
    ------------------------------------------------

 NO OUTPUT CONTROL FOR STRESS PERIOD   40   TIME STEP    3
 
 SOLVING FOR HEAD 
                                                   Max.-Head-Change                         Max.-Flux-Residual
  Residual-Control   Outer-Iter.   Inner-Iter.     Column Row Layer    Maximum-Head-Change  Column Row Layer    Maximum-Flux-Residual          L2-NORM 
          0                 1           2             2   13     1       0.1666509073E-01       2   13    1         0.9432263401E+00      0.1876287610E+01
          0                 2           2             4   13     1      -0.1569550214E-02       4   13    1        -0.9295613285E-01      0.1826488173E+00
          0                 3           1             4   13     1       0.1052090341E-03       4   13    1         0.6406393517E-02      0.1231922448E-01
          0                 4           1             4   13     1      -0.4089389008E-05       4   13    1        -0.2560538251E-03      0.4737759925E-03

    ------------------------------------------------
       NWT REQUIRED            4 OUTER ITERATIONS 
       AND A TOTAL OF          6 INNER ITERATIONS.
    ------------------------------------------------

 NO OUTPUT CONTROL FOR STRESS PERIOD   40   TIME STEP    4
 
 SOLVING FOR HEAD 
                                                   Max.-Head-Change                         Max.-Flux-Residual
  Residual-Control   Outer-Iter.   Inner-Iter.     Column Row Layer    Maximum-Head-Change  Column Row Layer    Maximum-Flux-Residual          L2-NORM 
          0                 1           2             2   13     1       0.1534925862E-01       2   13    1         0.8686625529E+00      0.1749963996E+01
          0                 2           2             2   13     1      -0.1422607892E-02       4   13    1        -0.8388266243E-01      0.1705005291E+00
          0                 3           1             4   13     1       0.9500883176E-04       4   13    1         0.5781361024E-02      0.1151630295E-01

    ------------------------------------------------
       NWT REQUIRED            3 OUTER ITERATIONS 
       AND A TOTAL OF          5 INNER ITERATIONS.
    ------------------------------------------------

 NO OUTPUT CONTROL FOR STRESS PERIOD   40   TIME STEP    5
 
 SOLVING FOR HEAD 
                                                   Max.-Head-Change                         Max.-Flux-Residual
  Residual-Control   Outer-Iter.   Inner-Iter.     Column Row Layer    Maximum-Head-Change  Column Row Layer    Maximum-Flux-Residual          L2-NORM 
          0                 1           2             2   13     1       0.1413784420E-01       2   13    1         0.8000176638E+00      0.1636422402E+01
          0                 2           2             2   13     1      -0.1311130608E-02       2   13    1        -0.7626517155E-01      0.1595910371E+00
          0                 3           1             4   13     1       0.8583411405E-04       4   13    1         0.5219380504E-02      0.1079506795E-01

    ------------------------------------------------
       NWT REQUIRED            3 OUTER ITERATIONS 
       AND A TOTAL OF          5 INNER ITERATIONS.
    ------------------------------------------------

 NO OUTPUT CONTROL FOR STRESS PERIOD   40   TIME STEP    6
 
 SOLVING FOR HEAD 
                                                   Max.-Head-Change                         Max.-Flux-Residual
  Residual-Control   Outer-Iter.   Inner-Iter.     Column Row Layer    Maximum-Head-Change  Column Row Layer    Maximum-Flux-Residual          L2-NORM 
          0                 1           2             2   13     1       0.1302282958E-01       2   13    1         0.7368373469E+00      0.1534476505E+01
          0                 2           2             2   13     1      -0.1208344467E-02       2   13    1        -0.7027778228E-01      0.1497999317E+00
          0                 3           1             4   13     1       0.7761039581E-04       4   13    1         0.4715841525E-02      0.1014587840E-01

    ------------------------------------------------
       NWT REQUIRED            3 OUTER ITERATIONS 
       AND A TOTAL OF          5 INNER ITERATIONS.
    ------------------------------------------------

 NO OUTPUT CONTROL FOR STRESS PERIOD   40   TIME STEP    7
 
 SOLVING FOR HEAD 
                                                   Max.-Head-Change                         Max.-Flux-Residual
  Residual-Control   Outer-Iter.   Inner-Iter.     Column Row Layer    Maximum-Head-Change  Column Row Layer    Maximum-Flux-Residual          L2-NORM 
          0                 1           2             2   13     1       0.1199671506E-01       2   13    1         0.6786967317E+00      0.1443017924E+01
          0                 2           2             2   13     1      -0.1113702512E-02       2   13    1        -0.6476407208E-01      0.1410803696E+00
          0                 3           1             2   13     1       0.7091122951E-04       4   13    1         0.4263100442E-02      0.9569472409E-02

    ------------------------------------------------
       NWT REQUIRED            3 OUTER ITERATIONS 
       AND A TOTAL OF          5 INNER ITERATIONS.
    ------------------------------------------------

 NO OUTPUT CONTROL FOR STRESS PERIOD   40   TIME STEP    8
 
 SOLVING FOR HEAD 
                                                   Max.-Head-Change                         Max.-Flux-Residual
  Residual-Control   Outer-Iter.   Inner-Iter.     Column Row Layer    Maximum-Head-Change  Column Row Layer    Maximum-Flux-Residual          L2-NORM 
          0                 1           2             2   13     1       0.1105232533E-01       2   13    1         0.6251910287E+00      0.1360978642E+01
          0                 2           2             2   13     1      -0.1026496893E-02       2   13    1        -0.5968596783E-01      0.1331557877E+00
          0                 3           1             2   13     1       0.6542902179E-04       2   13    1         0.3909927670E-02      0.9047756320E-02

    ------------------------------------------------
       NWT REQUIRED            3 OUTER ITERATIONS 
       AND A TOTAL OF          5 INNER ITERATIONS.
    ------------------------------------------------

 NO OUTPUT CONTROL FOR STRESS PERIOD   40   TIME STEP    9
 
 SOLVING FOR HEAD 
                                                   Max.-Head-Change                         Max.-Flux-Residual
  Residual-Control   Outer-Iter.   Inner-Iter.     Column Row Layer    Maximum-Head-Change  Column Row Layer    Maximum-Flux-Residual          L2-NORM 
          0                 1           2             2   13     1       0.1018320985E-01       2   13    1         0.5759514233E+00      0.1287497647E+01
          0                 2           2             2   13     1      -0.9461697967E-03       2   13    1        -0.5500762038E-01      0.1261149361E+00
          0                 3           1             2   13     1       0.6033525147E-04       2   13    1         0.3604994123E-02      0.8582935602E-02

    ------------------------------------------------
       NWT REQUIRED            3 OUTER ITERATIONS 
       AND A TOTAL OF          5 INNER ITERATIONS.
    ------------------------------------------------

 NO OUTPUT CONTROL FOR STRESS PERIOD   40   TIME STEP   10
 
 SOLVING FOR HEAD 
                                                   Max.-Head-Change                         Max.-Flux-Residual
  Residual-Control   Outer-Iter.   Inner-Iter.     Column Row Layer    Maximum-Head-Change  Column Row Layer    Maximum-Flux-Residual          L2-NORM 
          0                 1           2             2   13     1       0.9383412878E-02       2   13    1         0.5306414296E+00      0.1221732146E+01
          0                 2           2             2   13     1      -0.8722032712E-03       2   13    1        -0.5069998965E-01      0.1198178014E+00
          0                 3           1             2   13     1       0.5566356226E-04       2   13    1         0.3325356382E-02      0.8168858487E-02

    ------------------------------------------------
       NWT REQUIRED            3 OUTER ITERATIONS 
       AND A TOTAL OF          5 INNER ITERATIONS.
    ------------------------------------------------

 NO OUTPUT CONTROL FOR STRESS PERIOD   40   TIME STEP   11
 
 SOLVING FOR HEAD 
                                                   Max.-Head-Change                         Max.-Flux-Residual
  Residual-Control   Outer-Iter.   Inner-Iter.     Column Row Layer    Maximum-Head-Change  Column Row Layer    Maximum-Flux-Residual          L2-NORM 
          0                 1           2             2   13     1       0.8647466139E-02       2   13    1         0.4889510661E+00      0.1162905987E+01
          0                 2           2             2   13     1      -0.8040758352E-03       2   13    1        -0.4673267405E-01      0.1141868913E+00
          0                 3           1             2   13     1       0.5133535330E-04       2   13    1         0.3066305128E-02      0.7797655763E-02

    ------------------------------------------------
       NWT REQUIRED            3 OUTER ITERATIONS 
       AND A TOTAL OF          5 INNER ITERATIONS.
    ------------------------------------------------

 NO OUTPUT CONTROL FOR STRESS PERIOD   40   TIME STEP   12
 
 SOLVING FOR HEAD 
                                                   Max.-Head-Change                         Max.-Flux-Residual
  Residual-Control   Outer-Iter.   Inner-Iter.     Column Row Layer    Maximum-Head-Change  Column Row Layer    Maximum-Flux-Residual          L2-NORM 
          0                 1           2             2   13     1       0.7970173715E-02       2   13    1         0.4505857099E+00      0.1110326609E+01
          0                 2           2             2   13     1      -0.7413298862E-03       2   13    1        -0.4307894985E-01      0.1091736236E+00
          0                 3           1             2   13     1       0.4734060100E-04       2   13    1         0.2827206732E-02      0.7467510753E-02

    ------------------------------------------------
       NWT REQUIRED            3 OUTER ITERATIONS 
       AND A TOTAL OF          5 INNER ITERATIONS.
    ------------------------------------------------

 NO OUTPUT CONTROL FOR STRESS PERIOD   40   TIME STEP   13
 
 SOLVING FOR HEAD 
                                                   Max.-Head-Change                         Max.-Flux-Residual
  Residual-Control   Outer-Iter.   Inner-Iter.     Column Row Layer    Maximum-Head-Change  Column Row Layer    Maximum-Flux-Residual          L2-NORM 
          0                 1           2             2   13     1       0.7346903469E-02       2   13    1         0.4152828175E+00      0.1063336757E+01
          0                 2           2             2   13     1      -0.6835568637E-03       2   13    1        -0.3971506539E-01      0.1046666674E+00
          0                 3           1             2   13     1       0.4368804796E-04       2   13    1         0.2608620332E-02      0.7172201732E-02

    ------------------------------------------------
       NWT REQUIRED            3 OUTER ITERATIONS 
       AND A TOTAL OF          5 INNER ITERATIONS.
    ------------------------------------------------

 NO OUTPUT CONTROL FOR STRESS PERIOD   40   TIME STEP   14
 
 SOLVING FOR HEAD 
                                                   Max.-Head-Change                         Max.-Flux-Residual
  Residual-Control   Outer-Iter.   Inner-Iter.     Column Row Layer    Maximum-Head-Change  Column Row Layer    Maximum-Flux-Residual          L2-NORM 
          0                 1           2             2   13     1       0.6773377894E-02       2   13    1         0.3827998970E+00      0.1021349951E+01
          0                 2           2             2   13     1      -0.6303593702E-03       2   13    1        -0.3661781936E-01      0.1006551300E+00
          0                 3           1             2   13     1       0.4028971254E-04       2   13    1         0.2405244249E-02      0.6908681683E-02

    ------------------------------------------------
       NWT REQUIRED            3 OUTER ITERATIONS 
       AND A TOTAL OF          5 INNER ITERATIONS.
    ------------------------------------------------

 NO OUTPUT CONTROL FOR STRESS PERIOD   40   TIME STEP   15
 
 SOLVING FOR HEAD 
                                                   Max.-Head-Change                         Max.-Flux-Residual
  Residual-Control   Outer-Iter.   Inner-Iter.     Column Row Layer    Maximum-Head-Change  Column Row Layer    Maximum-Flux-Residual          L2-NORM 
          0                 1           2             1   13     1       0.6292451885E-02       2   13    1         0.3529065958E+00      0.9838447712E+00
          0                 2           2             1   13     1      -0.5910676841E-03       2   13    1        -0.3376428537E-01      0.9707132652E-01
          0                 3           1             1   13     1       0.3832345336E-04       2   13    1         0.2218868997E-02      0.6673960051E-02

    ------------------------------------------------
       NWT REQUIRED            3 OUTER ITERATIONS 
       AND A TOTAL OF          5 INNER ITERATIONS.
    ------------------------------------------------

 NO OUTPUT CONTROL FOR STRESS PERIOD   40   TIME STEP   16
 
 SOLVING FOR HEAD 
                                                   Max.-Head-Change                         Max.-Flux-Residual
  Residual-Control   Outer-Iter.   Inner-Iter.     Column Row Layer    Maximum-Head-Change  Column Row Layer    Maximum-Flux-Residual          L2-NORM 
          0                 1           2             1   13     1       0.5993714931E-02       1   13    1         0.3274330390E+00      0.9503509666E+00
          0                 2           2             1   13     1      -0.5636527641E-03       1   13    1        -0.3165750635E-01      0.9387195919E-01
          0                 3           1             1   13     1       0.3659883488E-04       1   13    1         0.2113227664E-02      0.6463114032E-02

    ------------------------------------------------
       NWT REQUIRED            3 OUTER ITERATIONS 
       AND A TOTAL OF          5 INNER ITERATIONS.
    ------------------------------------------------

 NO OUTPUT CONTROL FOR STRESS PERIOD   40   TIME STEP   17
 
 SOLVING FOR HEAD 
                                                   Max.-Head-Change                         Max.-Flux-Residual
  Residual-Control   Outer-Iter.   Inner-Iter.     Column Row Layer    Maximum-Head-Change  Column Row Layer    Maximum-Flux-Residual          L2-NORM 
          0                 1           2             1   13     1       0.5707470271E-02       1   13    1         0.3118573375E+00      0.9204215272E+00
          0                 2           2             1   13     1      -0.5373017120E-03       1   13    1        -0.3018355981E-01      0.9101374592E-01
          0                 3           1             1   13     1       0.3494640032E-04       1   13    1         0.2018226528E-02      0.6277176588E-02

    ------------------------------------------------
       NWT REQUIRED            3 OUTER ITERATIONS 
       AND A TOTAL OF          5 INNER ITERATIONS.
    ------------------------------------------------

 NO OUTPUT CONTROL FOR STRESS PERIOD   40   TIME STEP   18
 
 SOLVING FOR HEAD 
                                                   Max.-Head-Change                         Max.-Flux-Residual
  Residual-Control   Outer-Iter.   Inner-Iter.     Column Row Layer    Maximum-Head-Change  Column Row Layer    Maximum-Flux-Residual          L2-NORM 
          0                 1           2             1   13     1       0.5433373171E-02       1   13    1         0.2969364897E+00      0.8936597892E+00
          0                 2           2             1   13     1      -0.5120370099E-03       1   13    1        -0.2876977307E-01      0.8845744568E-01
          0                 3           1             1   13     1       0.3334098611E-04       1   13    1         0.1925886202E-02      0.6107686569E-02

    ------------------------------------------------
       NWT REQUIRED            3 OUTER ITERATIONS 
       AND A TOTAL OF          5 INNER ITERATIONS.
    ------------------------------------------------

 NO OUTPUT CONTROL FOR STRESS PERIOD   40   TIME STEP   19
 
 SOLVING FOR HEAD 
                                                   Max.-Head-Change                         Max.-Flux-Residual
  Residual-Control   Outer-Iter.   Inner-Iter.     Column Row Layer    Maximum-Head-Change  Column Row Layer    Maximum-Flux-Residual          L2-NORM 
          0                 1           2             1   13     1       0.5171012075E-02       1   13    1         0.2826489004E+00      0.8697038289E+00
          0                 2           2             1   13     1      -0.4877477112E-03       1   13    1        -0.2740999569E-01      0.8616714634E-01
          0                 3           1             1   13     1       0.3181120570E-04       1   13    1         0.1837864585E-02      0.5957455757E-02

    ------------------------------------------------
       NWT REQUIRED            3 OUTER ITERATIONS 
       AND A TOTAL OF          5 INNER ITERATIONS.
    ------------------------------------------------

 NO OUTPUT CONTROL FOR STRESS PERIOD   40   TIME STEP   20
 
 SOLVING FOR HEAD 
                                                   Max.-Head-Change                         Max.-Flux-Residual
  Residual-Control   Outer-Iter.   Inner-Iter.     Column Row Layer    Maximum-Head-Change  Column Row Layer    Maximum-Flux-Residual          L2-NORM 
          0                 1           2             1   13     1       0.4920093070E-02       1   13    1         0.2689794405E+00      0.8482446008E+00
          0                 2           2             1   13     1      -0.4644801969E-03       1   13    1        -0.2610691960E-01      0.8411572130E-01
          0                 3           1             1   13     1       0.3033269097E-04       1   13    1         0.1752745004E-02      0.5823088058E-02

    ------------------------------------------------
       NWT REQUIRED            3 OUTER ITERATIONS 
       AND A TOTAL OF          5 INNER ITERATIONS.
    ------------------------------------------------

 NO OUTPUT CONTROL FOR STRESS PERIOD   40   TIME STEP   21
 
 SOLVING FOR HEAD 
                                                   Max.-Head-Change                         Max.-Flux-Residual
  Residual-Control   Outer-Iter.   Inner-Iter.     Column Row Layer    Maximum-Head-Change  Column Row Layer    Maximum-Flux-Residual          L2-NORM 
          0                 1           2             1   13     1       0.4680243908E-02       1   13    1         0.2559084735E+00      0.8289951190E+00
          0                 2           2             1   13     1      -0.4421842565E-03       1   13    1        -0.2485781201E-01      0.8227344443E-01
          0                 3           1             2    2     1       0.2944498420E-04       1   13    1         0.1670853721E-02      0.5701550029E-02

    ------------------------------------------------
       NWT REQUIRED            3 OUTER ITERATIONS 
       AND A TOTAL OF          5 INNER ITERATIONS.
    ------------------------------------------------

 NO OUTPUT CONTROL FOR STRESS PERIOD   40   TIME STEP   22
 
 SOLVING FOR HEAD 
                                                   Max.-Head-Change                         Max.-Flux-Residual
  Residual-Control   Outer-Iter.   Inner-Iter.     Column Row Layer    Maximum-Head-Change  Column Row Layer    Maximum-Flux-Residual          L2-NORM 
          0                 1           2             1   13     1       0.4451066213E-02       1   13    1         0.2434149798E+00      0.8117054441E+00
          0                 2           2             1    1     1      -0.4300900184E-03       1   13    1        -0.2366163341E-01      0.8061764563E-01
          0                 3           1             1    1     1       0.2928752925E-04       2    2    1         0.1614440252E-02      0.5592473462E-02

    ------------------------------------------------
       NWT REQUIRED            3 OUTER ITERATIONS 
       AND A TOTAL OF          5 INNER ITERATIONS.
    ------------------------------------------------

 NO OUTPUT CONTROL FOR STRESS PERIOD   40   TIME STEP   23
 
 SOLVING FOR HEAD 
                                                   Max.-Head-Change                         Max.-Flux-Residual
  Residual-Control   Outer-Iter.   Inner-Iter.     Column Row Layer    Maximum-Head-Change  Column Row Layer    Maximum-Flux-Residual          L2-NORM 
          0                 1           2             1    1     1       0.4415896836E-02       1   13    1         0.2314805685E+00      0.7961429678E+00
          0                 2           2             1    1     1      -0.4295470035E-03       1    1    1        -0.2292908828E-01      0.7912729084E-01
          0                 3           1             1    1     1       0.2925055213E-04       1    1    1         0.1605036467E-02      0.5494103887E-02

    ------------------------------------------------
       NWT REQUIRED            3 OUTER ITERATIONS 
       AND A TOTAL OF          5 INNER ITERATIONS.
    ------------------------------------------------

 NO OUTPUT CONTROL FOR STRESS PERIOD   40   TIME STEP   24
 
 SOLVING FOR HEAD 
                                                   Max.-Head-Change                         Max.-Flux-Residual
  Residual-Control   Outer-Iter.   Inner-Iter.     Column Row Layer    Maximum-Head-Change  Column Row Layer    Maximum-Flux-Residual          L2-NORM 
          0                 1           2             1    1     1       0.4410311961E-02       1    1    1         0.2289998016E+00      0.7821006703E+00
          0                 2           2             1    1     1      -0.4290037443E-03       1    1    1        -0.2290002323E-01      0.7778088881E-01
          0                 3           1             1    1     1       0.2921355844E-04       1    1    1         0.1603001914E-02      0.5405419709E-02

    ------------------------------------------------
       NWT REQUIRED            3 OUTER ITERATIONS 
       AND A TOTAL OF          5 INNER ITERATIONS.
    ------------------------------------------------

 NO OUTPUT CONTROL FOR STRESS PERIOD   40   TIME STEP   25
 
 SOLVING FOR HEAD 
                                                   Max.-Head-Change                         Max.-Flux-Residual
  Residual-Control   Outer-Iter.   Inner-Iter.     Column Row Layer    Maximum-Head-Change  Column Row Layer    Maximum-Flux-Residual          L2-NORM 
          0                 1           2             1    1     1       0.4404771161E-02       1    1    1         0.2287114468E+00      0.7694043708E+00
          0                 2           2             1    1     1      -0.4284647719E-03       1    1    1        -0.2287118752E-01      0.7656726249E-01
          0                 3           1             1    1     1       0.2917685610E-04       1    1    1         0.1600983403E-02      0.5325174434E-02

    ------------------------------------------------
       NWT REQUIRED            3 OUTER ITERATIONS 
       AND A TOTAL OF          5 INNER ITERATIONS.
    ------------------------------------------------

 NO OUTPUT CONTROL FOR STRESS PERIOD   40   TIME STEP   26
 
 SOLVING FOR HEAD 
                                                   Max.-Head-Change                         Max.-Flux-Residual
  Residual-Control   Outer-Iter.   Inner-Iter.     Column Row Layer    Maximum-Head-Change  Column Row Layer    Maximum-Flux-Residual          L2-NORM 
          0                 1           2             1    1     1       0.4399250969E-02       1    1    1         0.2284241652E+00      0.7579027957E+00
          0                 2           2             1    1     1      -0.4279278047E-03       1    1    1        -0.2284245917E-01      0.7545582640E-01
          0                 3           1             1    1     1       0.2914029079E-04       1    1    1         0.1598972430E-02      0.5251312588E-02

    ------------------------------------------------
       NWT REQUIRED            3 OUTER ITERATIONS 
       AND A TOTAL OF          5 INNER ITERATIONS.
    ------------------------------------------------

 NO OUTPUT CONTROL FOR STRESS PERIOD   40   TIME STEP   27
 
 SOLVING FOR HEAD 
                                                   Max.-Head-Change                         Max.-Flux-Residual
  Residual-Control   Outer-Iter.   Inner-Iter.     Column Row Layer    Maximum-Head-Change  Column Row Layer    Maximum-Flux-Residual          L2-NORM 
          0                 1           2             1    1     1       0.4393751258E-02       1    1    1         0.2281379522E+00      0.7474536912E+00
          0                 2           2             1    1     1      -0.4273928298E-03       1    1    1        -0.2281383765E-01      0.7445011226E-01
          0                 3           1             1    1     1       0.2910386109E-04       1    1    1         0.1596968933E-02      0.5184272106E-02

    ------------------------------------------------
       NWT REQUIRED            3 OUTER ITERATIONS 
       AND A TOTAL OF          5 INNER ITERATIONS.
    ------------------------------------------------

 NO OUTPUT CONTROL FOR STRESS PERIOD   40   TIME STEP   28
 
 SOLVING FOR HEAD 
                                                   Max.-Head-Change                         Max.-Flux-Residual
  Residual-Control   Outer-Iter.   Inner-Iter.     Column Row Layer    Maximum-Head-Change  Column Row Layer    Maximum-Flux-Residual          L2-NORM 
          0                 1           2             1    1     1       0.4388271919E-02       1    1    1         0.2278528011E+00      0.7379349699E+00
          0                 2           2             1    1     1      -0.4268598363E-03       1    1    1        -0.2278532234E-01      0.7353238577E-01
          0                 3           1             1    1     1       0.2906756630E-04       1    1    1         0.1594972856E-02      0.5123486111E-02

    ------------------------------------------------
       NWT REQUIRED            3 OUTER ITERATIONS 
       AND A TOTAL OF          5 INNER ITERATIONS.
    ------------------------------------------------

 NO OUTPUT CONTROL FOR STRESS PERIOD   40   TIME STEP   29
 
 SOLVING FOR HEAD 
                                                   Max.-Head-Change                         Max.-Flux-Residual
  Residual-Control   Outer-Iter.   Inner-Iter.     Column Row Layer    Maximum-Head-Change  Column Row Layer    Maximum-Flux-Residual          L2-NORM 
          0                 1           2             1    1     1       0.4382789465E-02       1    1    1         0.2275674937E+00      0.7292395435E+00
          0                 2           2             1    1     1      -0.4263265401E-03       1    1    1        -0.2275679141E-01      0.7269311687E-01
          0                 3           1             1    1     1       0.2903125068E-04       1    1    1         0.1592975683E-02      0.5067560147E-02

    ------------------------------------------------
       NWT REQUIRED            3 OUTER ITERATIONS 
       AND A TOTAL OF          5 INNER ITERATIONS.
    ------------------------------------------------

 NO OUTPUT CONTROL FOR STRESS PERIOD   40   TIME STEP   30



 STREAM LISTING     PERIOD     40   STEP       30

 LAYER ROW COL. STREAM  RCH.  FLOW INTO     FLOW TO   FLOW OUT OF   OVRLND.     DIRECT     STREAM       STREAM     STREAM     STREAM   STREAMBED  STREAMBED
                SEG.NO.  NO.  STRM. RCH.    AQUIFER    STRM. RCH.    RUNOFF     PRECIP       ET          HEAD       DEPTH      WIDTH   CONDCTNC.   GRADIENT

   1    1    1     1     1    7.3498E+01  4.1744E-01   7.3080E+01  0.000E+00  0.000E+00  0.000E+00  1.09473E+03  1.681E+00  1.982E+01  8.917E-02  1.560E+00
   1    2    2     1     2    7.3080E+01  6.4665E-01   7.2434E+01  0.000E+00  0.000E+00  0.000E+00  1.08973E+03  1.675E+00  1.976E+01  1.383E-01  1.558E+00
   1    3    3     1     3    7.2434E+01  5.5165E-01   7.1882E+01  0.000E+00  0.000E+00  0.000E+00  1.08409E+03  1.669E+00  1.969E+01  1.182E-01  1.556E+00
   1    3    4     1     4    7.1882E+01  5.0813E-01   7.1374E+01  0.000E+00  0.000E+00  0.000E+00  1.07907E+03  1.663E+00  1.963E+01  1.090E-01  1.554E+00
   1    4    5     2     1    6.9374E+01  4.0746E-01   6.8966E+01  0.000E+00  0.000E+00  0.000E+00  1.07416E+03  2.224E+00  1.200E+01  7.800E-02  1.741E+00
   1    5    6     2     2    6.8966E+01  3.1301E-01   6.8653E+01  0.000E+00  0.000E+00  0.000E+00  1.06873E+03  2.217E+00  1.200E+01  6.000E-02  1.739E+00
   1    6    6     2     3    6.8653E+01  3.1265E-01   6.8341E+01  0.000E+00  0.000E+00  0.000E+00  1.06400E+03  2.211E+00  1.200E+01  6.000E-02  1.737E+00
   1    7    6     2     4    6.8341E+01  3.1228E-01   6.8028E+01  0.000E+00  0.000E+00  0.000E+00  1.05928E+03  2.205E+00  1.200E+01  6.000E-02  1.735E+00
   1    8    6     2     5    6.8028E+01  3.1192E-01   6.7717E+01  0.000E+00  0.000E+00  0.000E+00  1.05456E+03  2.199E+00  1.200E+01  6.000E-02  1.733E+00
   1    3    5     3     1    2.0000E+00  2.8252E-01   1.7175E+00  0.000E+00  0.000E+00  0.000E+00  1.07555E+03  1.909E+00  9.636E+00  7.227E-02  1.955E+00
   1    3    6     3     2    1.7175E+00  2.4905E-01   1.4684E+00  0.000E+00  0.000E+00  0.000E+00  1.07264E+03  1.727E+00  8.909E+00  6.682E-02  1.864E+00
   1    3    7     3     3    1.4684E+00  1.9718E-01   1.2712E+00  0.000E+00  0.000E+00  0.000E+00  1.06987E+03  1.555E+00  8.218E+00  5.547E-02  1.777E+00
   1    4    8     3     4    1.2712E+00  2.2567E-01   1.0456E+00  0.000E+00  0.000E+00  0.000E+00  1.06682E+03  1.364E+00  7.455E+00  6.709E-02  1.682E+00
   1    5    8     3     5    1.0456E+00  1.5790E-01   8.8768E-01  0.000E+00  0.000E+00  0.000E+00  1.06362E+03  1.164E+00  6.655E+00  4.991E-02  1.582E+00
   1    6    8     3     6    8.8768E-01  5.5980E-02   8.3170E-01  0.000E+00  0.000E+00  0.000E+00  1.06158E+03  1.036E+00  6.145E+00  1.844E-02  1.518E+00
   1    5   10     4     1    1.0000E+01  9.0919E-02   9.9091E+00  0.000E+00  0.000E+00  0.000E+00  1.07836E+03  6.368E-01  1.000E+01  2.500E-02  1.212E+00
   1    5    9     4     2    9.9091E+00  1.8158E-01   9.7275E+00  0.000E+00  0.000E+00  0.000E+00  1.07154E+03  6.315E-01  1.000E+01  5.000E-02  1.211E+00
   1    6    8     4     3    9.7275E+00  1.2689E-01   9.6006E+00  0.000E+00  0.000E+00  0.000E+00  1.06381E+03  6.256E-01  1.000E+01  3.500E-02  1.209E+00
   1    6    8     5     1    1.0432E+01  2.2686E-01   1.0205E+01  0.000E+00  0.000E+00  0.000E+00  1.05868E+03  6.790E-01  1.542E+01  6.166E-02  1.226E+00
   1    7    7     5     2    1.0205E+01  2.7894E-01   9.9265E+00  0.000E+00  0.000E+00  0.000E+00  1.05417E+03  6.732E-01  1.519E+01  7.594E-02  1.224E+00
   1    8    7     5     3    9.9265E+00  1.9221E-01   9.7343E+00  0.000E+00  0.000E+00  0.000E+00  1.04992E+03  6.676E-01  1.497E+01  5.241E-02  1.223E+00
   1    8    6     5     4    9.7343E+00  1.3577E-01   9.5985E+00  0.000E+00  0.000E+00  0.000E+00  1.04691E+03  6.637E-01  1.482E+01  3.706E-02  1.221E+00
   1    9    6     6     1    7.7315E+01  3.2406E-01   7.6991E+01  0.000E+00  0.000E+00  0.000E+00  1.04513E+03  2.401E+00  1.200E+01  6.000E-02  1.800E+00
   1   10    7     6     2    7.6991E+01  3.2369E-01   7.6667E+01  0.000E+00  0.000E+00  0.000E+00  1.04058E+03  2.395E+00  1.200E+01  6.000E-02  1.798E+00
   1   11    7     6     3    7.6667E+01  3.2333E-01   7.6344E+01  0.000E+00  0.000E+00  0.000E+00  1.03603E+03  2.389E+00  1.200E+01  6.000E-02  1.796E+00
   1   12    7     6     4    7.6344E+01  3.2297E-01   7.6021E+01  0.000E+00  0.000E+00  0.000E+00  1.03147E+03  2.383E+00  1.200E+01  6.000E-02  1.794E+00
   1   13    7     6     5    7.6021E+01  3.1341E-02   7.5990E+01  0.000E+00  0.000E+00  0.000E+00  1.02829E+03  2.379E+00  1.200E+01  2.400E-02  4.353E-01
   1   14    9     7     1    1.5000E+02  1.3475E+00   1.4865E+02  0.000E+00  0.000E+00  0.000E+00  1.03987E+03  2.288E+00  5.529E+01  5.593E-01  8.031E-01
   1   13    8     7     2    1.4865E+02  1.8704E+00   1.4678E+02  0.000E+00  0.000E+00  0.000E+00  1.03478E+03  2.279E+00  5.526E+01  6.148E-01  1.014E+00
   1   13    7     7     3    1.4678E+02  1.5116E+00   1.4527E+02  0.000E+00  0.000E+00  0.000E+00  1.02969E+03  2.270E+00  5.522E+01  5.584E-01  9.023E-01
   1   13    6     8     1    2.2126E+02  1.1760E+00   2.2008E+02  0.000E+00  0.000E+00  0.000E+00  1.02513E+03  3.256E+00  4.721E+01  4.811E-01  8.149E-01
   1   13    5     8     2    2.2008E+02  3.3979E-01   2.1974E+02  0.000E+00  0.000E+00  0.000E+00  1.01888E+03  3.251E+00  4.715E+01  4.804E-01  2.358E-01
   1   13    4     8     3    2.1974E+02 -2.0309E+00   2.2178E+02  0.000E+00  0.000E+00  0.000E+00  1.01263E+03  3.256E+00  4.721E+01  4.811E+00 -1.407E-01
   1   13    3     8     4    2.2178E+02 -3.4025E+00   2.2518E+02  0.000E+00  0.000E+00  0.000E+00  1.00640E+03  3.271E+00  4.743E+01  4.833E+00 -2.347E-01
   1   13    2     8     5    2.2518E+02 -2.3898E+00   2.2757E+02  0.000E+00  0.000E+00  0.000E+00  1.00016E+03  3.287E+00  4.766E+01  4.857E+00 -1.640E-01
   1   13    1     8     6    2.2757E+02 -1.8098E+00   2.2938E+02  0.000E+00  0.000E+00  0.000E+00  9.95173E+02  3.298E+00  4.783E+01  2.924E+00 -2.063E-01
   1    8    6     9     1    0.0000E+00  0.0000E+00   0.0000E+00  0.000E+00  0.000E+00  0.000E+00  1.07875E+03  0.000E+00  4.000E+00  0.000E+00  1.000E+00
   1    8    5     9     2    0.0000E+00  0.0000E+00   0.0000E+00  0.000E+00  0.000E+00  0.000E+00  1.07825E+03  0.000E+00  4.000E+00  0.000E+00  1.000E+00





UNSATURATED ZONE PACKAGE VOLUMETRIC BUDGET FOR  TIME STEP    30 STRESS PERIOD   40
  ------------------------------------------------------------------------------



     CUMULATIVE VOLUMES      L**3       RATES FOR THIS TIME STEP      L**3/T
     ------------------                 ------------------------

           IN:                                      IN:
           ---                                      ---
        INFILTRATION =  1432095379.5749          INFILTRATION =           0.8475

          OUT:                                     OUT:
          ----                                     ----
              UZF ET =  1291017347.2601                UZF ET =           0.7500
        UZF RECHARGE =       73224.0000          UZF RECHARGE =       0.0000E+00

            IN - OUT =   141004808.3148              IN - OUT =       9.7500E-02

          STORAGE:                                 STORAGE:
          --------                                 --------
      STORAGE CHANGE =   141006165.0758        STORAGE CHANGE =       9.7500E-02

 PERCENT DISCREPANCY IS DIFFERENCE BETWEEN IN-OUT MINUS CHANGE IN STORAGE
 DIVIDED BY THE AVERAGE OF IN AND OUT TIMES 100

 PERCENT DISCREPANCY =          -0.00     PERCENT DISCREPANCY =           0.00






1
  VOLUMETRIC BUDGET FOR AGRICULTURAL FIELDS AT  END OF TIME STEP   30, STRESS PERIOD  40
  ------------------------------------------------------------------------------

     CUMULATIVE VOLUMES      L**3       RATES FOR THIS TIME STEP      L**3/T
     ------------------                 ------------------------

           IN:                                      IN:
           ---                                      ---
               AG WELLS  =   381194528.0000                 AG WELLS  =           0.0000
      DIVERSION SEGMENTS =   963956736.0000        DIVERSION SEGMENTS =           0.0000
       IRRIGATION PONDS  =           0.0000         IRRIGATION PONDS  =           0.0000
           GW IRRIGATION =           0.0000             GW IRRIGATION =           0.0000
           SW IRRIGATION =           0.0000             SW IRRIGATION =           0.0000
        SYSTEM LOSSES GW =           0.0000          SYSTEM LOSSES GW =           0.0000
        SYSTEM LOSSES SW =           0.0000          SYSTEM LOSSES SW =           0.0000

                TOTAL IN =  1345151232.0000                  TOTAL IN =           0.0000

          OUT:                                     OUT:
          ----                                     ----
               AG WELLS  =           0.0000                 AG WELLS  =           0.0000
      DIVERSION SEGMENTS =           0.0000        DIVERSION SEGMENTS =           0.0000
       IRRIGATION PONDS  =           0.0000         IRRIGATION PONDS  =           0.0000
           GW IRRIGATION =   381194528.0000             GW IRRIGATION =           0.0000
           SW IRRIGATION =   963976704.0000             SW IRRIGATION =           0.0000
        SYSTEM LOSSES GW =           0.0000          SYSTEM LOSSES GW =           0.0000
        SYSTEM LOSSES SW =           0.0000          SYSTEM LOSSES SW =           0.0000

               TOTAL OUT =  1345171200.0000                 TOTAL OUT =           0.0000

                IN - OUT =      -19968.0000                  IN - OUT =           0.0000

     PERCENT DISCREPANCY =          -0.00         PERCENT DISCREPANCY =           0.00



1
  VOLUMETRIC BUDGET FOR ENTIRE MODEL AT END OF TIME STEP   30, STRESS PERIOD  40
  ------------------------------------------------------------------------------

     CUMULATIVE VOLUMES      L**3       RATES FOR THIS TIME STEP      L**3/T
     ------------------                 ------------------------

           IN:                                      IN:
           ---                                      ---
             STORAGE     =   673203328.0000               STORAGE     =           0.6568
       CONSTANT HEAD     =           0.0000         CONSTANT HEAD     =           0.0000
     HEAD DEP BOUNDS     =    29350684.0000       HEAD DEP BOUNDS     =           0.2866
      STREAM LEAKAGE     =  1229831808.0000        STREAM LEAKAGE     =          13.7533
        UZF RECHARGE     =       73223.9531          UZF RECHARGE     =           0.0000
               GW ET     =           0.0000                 GW ET     =           0.0000
     SURFACE LEAKAGE     =           0.0000       SURFACE LEAKAGE     =           0.0000
           AG WELLS      =           0.0000             AG WELLS      =           0.0000

                TOTAL IN =  1932459008.0000                  TOTAL IN =          14.6966

          OUT:                                     OUT:
          ----                                     ----
             STORAGE     =   421550464.0000               STORAGE     =           4.7664
       CONSTANT HEAD     =           0.0000         CONSTANT HEAD     =           0.0000
     HEAD DEP BOUNDS     =    29835104.0000       HEAD DEP BOUNDS     =           0.2961
      STREAM LEAKAGE     =  1096901888.0000        STREAM LEAKAGE     =           9.6330
        UZF RECHARGE     =           0.0000          UZF RECHARGE     =           0.0000
               GW ET     =     2985600.2500                 GW ET     =       2.2988E-03
     SURFACE LEAKAGE     =           0.0000       SURFACE LEAKAGE     =           0.0000
           AG WELLS      =   381194528.0000             AG WELLS      =           0.0000

               TOTAL OUT =  1932467584.0000                 TOTAL OUT =          14.6978

                IN - OUT =       -8576.0000                  IN - OUT =      -1.1721E-03

     PERCENT DISCREPANCY =          -0.00         PERCENT DISCREPANCY =          -0.01






         TIME SUMMARY AT END OF TIME STEP   30 IN STRESS PERIOD   40
                    SECONDS     MINUTES      HOURS       DAYS        YEARS
                    -----------------------------------------------------------
   TIME STEP LENGTH  87667.      1461.1      24.352      1.0147     2.77799E-03
 STRESS PERIOD TIME 2.63000E+06  43833.      730.56      30.440     8.33397E-02
         TOTAL TIME 1.02656E+08 1.71093E+06  28515.      1188.1      3.2530    
1
1
                            STRESS PERIOD NO.   41, LENGTH =   2630000.    
                            -----------------------------------------------

                              NUMBER OF TIME STEPS =    30

                               MULTIPLIER FOR DELT =     1.000

                            INITIAL TIME STEP SIZE =   87666.66    

 REUSING NON-PARAMETER GHB CELLS FROM LAST STRESS PERIOD

      2 GHB CELLS

 REUSING STREAM SEGMENT DATA FROM LAST STRESS PERIOD



            AREAL INFILTRATION RATE
 READING ON UNIT   19 WITH FORMAT: (FREE)              

            1           2           3           4           5           6           7           8           9          10
 ........................................................................................................................
   1   1.0000E-10  2.0000E-10   0.000       0.000       0.000       0.000       0.000       0.000       0.000       0.000    
   2   2.0000E-10  1.0000E-10  2.0000E-10   0.000       0.000      8.0000E-10  8.0000E-10  5.0000E-10   0.000       0.000    
   3    0.000      5.0000E-10  1.0000E-10  1.0000E-10  8.0000E-10  8.0000E-10  5.0000E-10  5.0000E-10   0.000       0.000    
   4   8.0000E-10  5.0000E-10  1.0000E-10  1.0000E-10  1.0000E-10  1.0000E-10  1.0000E-10  1.0000E-10  2.0000E-10   0.000    
   5   8.0000E-10  5.0000E-10  1.0000E-10  1.0000E-10  1.0000E-10  1.0000E-10  1.0000E-10  1.0000E-10  1.0000E-10  1.0000E-10
   6   8.0000E-10  5.0000E-10  5.0000E-10  2.0000E-10  2.0000E-10  1.0000E-10  1.0000E-10  1.0000E-10  1.0000E-10  5.0000E-10
   7   8.0000E-10  5.0000E-10  5.0000E-10  2.0000E-10  2.0000E-10  1.0000E-10  1.0000E-10  2.0000E-10  2.0000E-10   0.000    
   8    0.000      5.0000E-10  5.0000E-10  2.0000E-10  2.0000E-10  1.0000E-10  1.0000E-10  2.0000E-10  5.0000E-10   0.000    
   9    0.000      5.0000E-10  5.0000E-10  2.0000E-10  2.0000E-10  1.0000E-10  1.0000E-10  2.0000E-10  5.0000E-10   0.000    
  10    0.000      5.0000E-10  5.0000E-10  2.0000E-10  2.0000E-10  1.0000E-10  1.0000E-10  2.0000E-10  5.0000E-10  8.0000E-10
  11    0.000      1.0000E-10  1.0000E-10  1.0000E-10  1.0000E-10  1.0000E-10  1.0000E-10  2.0000E-10  5.0000E-10   0.000    
  12   1.0000E-10  1.0000E-10  1.0000E-10  1.0000E-10  1.0000E-10  1.0000E-10  1.0000E-10  1.0000E-10  2.0000E-10   0.000    
  13   1.0000E-10  1.0000E-10  2.0000E-10  2.0000E-10  2.0000E-10  2.0000E-10  2.0000E-10  1.0000E-10  1.0000E-10   0.000    
  14    0.000      2.0000E-10  5.0000E-10  5.0000E-10  5.0000E-10  5.0000E-10  5.0000E-10  2.0000E-10  1.0000E-10   0.000    
  15    0.000       0.000      8.0000E-10  8.0000E-10  8.0000E-10  8.0000E-10   0.000       0.000       0.000       0.000    

                  ET RATE =  2.500000E-08

 USING ET EXTINCTION DEPTH FROM PREVIOUS STRESS PERIOD. CURRENT PERIOD IS:      41

 USING EXTINCTION WATER CONTENT FROM PREVIOUS STRESS PERIOD. CURRENT PERIOD IS:      41

 USING AIR ENTRY PRESSURE FROM PREVIOUS STRESS PERIOD. CURRENT PERIOD IS:      41

 USING ROOT PRESSURE HEAD FROM PREVIOUS STRESS PERIOD. CURRENT PERIOD IS:      41

 USING ROOT ACTIVITY FROM PREVIOUS STRESS PERIOD. CURRENT PERIOD IS:      41

 PROCESSING AG STRESS PERIOD DATA

 READING AG STRESS PERIOD DATA

 READING IRRIGATION SEGMENT

 READING IRRIGATION WELL

 READING SUPPLEMENTAL WELL

 NO IRRPOND OR REUSING IRRPOND DATA FROM LAST STRESS PERIOD

 END PROCESSING AG STRESS PERIOD DATA OPTIONS
 
 SOLVING FOR HEAD 
                                                   Max.-Head-Change                         Max.-Flux-Residual
  Residual-Control   Outer-Iter.   Inner-Iter.     Column Row Layer    Maximum-Head-Change  Column Row Layer    Maximum-Flux-Residual          L2-NORM 
          0                 1           2             1    1     1       0.4377350556E-02       1    1    1         0.2272844500E+00      0.7123654868E+00
          0                 2           2             1    1     1      -0.4257974791E-03       1    1    1        -0.2272848682E-01      0.7117332504E-01
          0                 3           1             1    1     1       0.2899522333E-04       1    1    1         0.1590994351E-02      0.4976103990E-02

    ------------------------------------------------
       NWT REQUIRED            3 OUTER ITERATIONS 
       AND A TOTAL OF          5 INNER ITERATIONS.
    ------------------------------------------------

 NO OUTPUT CONTROL FOR STRESS PERIOD   41   TIME STEP    1
 
 SOLVING FOR HEAD 
                                                   Max.-Head-Change                         Max.-Flux-Residual
  Residual-Control   Outer-Iter.   Inner-Iter.     Column Row Layer    Maximum-Head-Change  Column Row Layer    Maximum-Flux-Residual          L2-NORM 
          0                 1           2             1    1     1       0.4371931675E-02       1    1    1         0.2270024514E+00      0.7055249447E+00
          0                 2           2             1    1     1      -0.4252703671E-03       1    1    1        -0.2270028678E-01      0.7049401940E-01
          0                 3           1             1    1     1       0.2895932922E-04       1    1    1         0.1589020360E-02      0.4928898248E-02

    ------------------------------------------------
       NWT REQUIRED            3 OUTER ITERATIONS 
       AND A TOTAL OF          5 INNER ITERATIONS.
    ------------------------------------------------

 NO OUTPUT CONTROL FOR STRESS PERIOD   41   TIME STEP    2
 
 SOLVING FOR HEAD 
                                                   Max.-Head-Change                         Max.-Flux-Residual
  Residual-Control   Outer-Iter.   Inner-Iter.     Column Row Layer    Maximum-Head-Change  Column Row Layer    Maximum-Flux-Residual          L2-NORM 
          0                 1           2             1    1     1       0.4366509345E-02       1    1    1         0.2267202782E+00      0.6992534882E+00
          0                 2           2             1    1     1      -0.4247429191E-03       1    1    1        -0.2267206925E-01      0.6987101535E-01
          0                 3           1             1    1     1       0.2892341216E-04       1    1    1         0.1587045135E-02      0.4885686592E-02

    ------------------------------------------------
       NWT REQUIRED            3 OUTER ITERATIONS 
       AND A TOTAL OF          5 INNER ITERATIONS.
    ------------------------------------------------

 NO OUTPUT CONTROL FOR STRESS PERIOD   41   TIME STEP    3
 
 SOLVING FOR HEAD 
                                                   Max.-Head-Change                         Max.-Flux-Residual
  Residual-Control   Outer-Iter.   Inner-Iter.     Column Row Layer    Maximum-Head-Change  Column Row Layer    Maximum-Flux-Residual          L2-NORM 
          0                 1           2             1    1     1       0.4282138147E-02       1    1    1         0.2223369072E+00      0.6802063916E+00
          0                 2           2             1    1     1      -0.4165358726E-03       1    1    1        -0.2223373020E-01      0.6800396422E-01
          0                 3           1             1    1     1       0.2836454302E-04       1    1    1         0.1556361408E-02      0.4758518004E-02

    ------------------------------------------------
       NWT REQUIRED            3 OUTER ITERATIONS 
       AND A TOTAL OF          5 INNER ITERATIONS.
    ------------------------------------------------

 NO OUTPUT CONTROL FOR STRESS PERIOD   41   TIME STEP    4
 
 SOLVING FOR HEAD 
                                                   Max.-Head-Change                         Max.-Flux-Residual
  Residual-Control   Outer-Iter.   Inner-Iter.     Column Row Layer    Maximum-Head-Change  Column Row Layer    Maximum-Flux-Residual          L2-NORM 
          0                 1           2             4   13     1      -0.6035311018E-02       4   13    1        -0.3564682459E+00      0.7964730592E+00
          0                 2           2             4   13     1       0.5821533685E-03       4   13    1         0.3535487468E-01      0.7861515296E-01
          0                 3           1             4   13     1      -0.3918290490E-04       4   13    1        -0.2446803712E-02      0.5408195716E-02

    ------------------------------------------------
       NWT REQUIRED            3 OUTER ITERATIONS 
       AND A TOTAL OF          5 INNER ITERATIONS.
    ------------------------------------------------

 NO OUTPUT CONTROL FOR STRESS PERIOD   41   TIME STEP    5
 
 SOLVING FOR HEAD 
                                                   Max.-Head-Change                         Max.-Flux-Residual
  Residual-Control   Outer-Iter.   Inner-Iter.     Column Row Layer    Maximum-Head-Change  Column Row Layer    Maximum-Flux-Residual          L2-NORM 
          0                 1           2             4   13     1      -0.5309805226E-02       4   13    1        -0.3136435160E+00      0.7531123616E+00
          0                 2           2             4   13     1       0.5121897601E-03       4   13    1         0.3110859179E-01      0.7442607257E-01
          0                 3           1             4   13     1      -0.3447338606E-04       4   13    1        -0.2152905216E-02      0.5128511791E-02

    ------------------------------------------------
       NWT REQUIRED            3 OUTER ITERATIONS 
       AND A TOTAL OF          5 INNER ITERATIONS.
    ------------------------------------------------

 NO OUTPUT CONTROL FOR STRESS PERIOD   41   TIME STEP    6
 
 SOLVING FOR HEAD 
                                                   Max.-Head-Change                         Max.-Flux-Residual
  Residual-Control   Outer-Iter.   Inner-Iter.     Column Row Layer    Maximum-Head-Change  Column Row Layer    Maximum-Flux-Residual          L2-NORM 
          0                 1           2             3   13     1      -0.4725172725E-02       4   13    1        -0.2759440501E+00      0.7163561139E+00
          0                 2           2             4   13     1       0.4506071928E-03       4   13    1         0.2737158280E-01      0.7088239015E-01
          0                 3           1             4   13     1      -0.3034314814E-04       4   13    1        -0.1895176505E-02      0.4894109129E-02

    ------------------------------------------------
       NWT REQUIRED            3 OUTER ITERATIONS 
       AND A TOTAL OF          5 INNER ITERATIONS.
    ------------------------------------------------

 NO OUTPUT CONTROL FOR STRESS PERIOD   41   TIME STEP    7
 
 SOLVING FOR HEAD 
                                                   Max.-Head-Change                         Max.-Flux-Residual
  Residual-Control   Outer-Iter.   Inner-Iter.     Column Row Layer    Maximum-Head-Change  Column Row Layer    Maximum-Flux-Residual          L2-NORM 
          0                 1           2             3   13     1      -0.4224141260E-02       3   13    1        -0.2458252168E+00      0.6853028760E+00
          0                 2           2             3   13     1       0.4014121866E-03       4   13    1         0.2407951585E-01      0.6789153903E-01
          0                 3           1             4   13     1      -0.2668546568E-04       4   13    1        -0.1667005337E-02      0.4694273559E-02

    ------------------------------------------------
       NWT REQUIRED            3 OUTER ITERATIONS 
       AND A TOTAL OF          5 INNER ITERATIONS.
    ------------------------------------------------

 NO OUTPUT CONTROL FOR STRESS PERIOD   41   TIME STEP    8
 
 SOLVING FOR HEAD 
                                                   Max.-Head-Change                         Max.-Flux-Residual
  Residual-Control   Outer-Iter.   Inner-Iter.     Column Row Layer    Maximum-Head-Change  Column Row Layer    Maximum-Flux-Residual          L2-NORM 
          0                 1           2             3   13     1      -0.3775679958E-02       3   13    1        -0.2197534101E+00      0.6591284836E+00
          0                 2           2             3   13     1       0.3588664792E-03       3   13    1         0.2147468516E-01      0.6537241879E-01
          0                 3           1             3   13     1      -0.2364244216E-04       4   13    1        -0.1465587480E-02      0.4526130434E-02

    ------------------------------------------------
       NWT REQUIRED            3 OUTER ITERATIONS 
       AND A TOTAL OF          5 INNER ITERATIONS.
    ------------------------------------------------

 NO OUTPUT CONTROL FOR STRESS PERIOD   41   TIME STEP    9
 
 SOLVING FOR HEAD 
                                                   Max.-Head-Change                         Max.-Flux-Residual
  Residual-Control   Outer-Iter.   Inner-Iter.     Column Row Layer    Maximum-Head-Change  Column Row Layer    Maximum-Flux-Residual          L2-NORM 
          0                 1           2             3   13     1      -0.3374365859E-02       3   13    1        -0.1964222917E+00      0.6371387351E+00
          0                 2           2             3   13     1       0.3208283175E-03       3   13    1         0.1920111229E-01      0.6326130499E-01
          0                 3           1             1    1     1       0.2125557352E-04       3   13    1        -0.1300868276E-02      0.4386913041E-02

    ------------------------------------------------
       NWT REQUIRED            3 OUTER ITERATIONS 
       AND A TOTAL OF          5 INNER ITERATIONS.
    ------------------------------------------------

 NO OUTPUT CONTROL FOR STRESS PERIOD   41   TIME STEP   10
 
 SOLVING FOR HEAD 
                                                   Max.-Head-Change                         Max.-Flux-Residual
  Residual-Control   Outer-Iter.   Inner-Iter.     Column Row Layer    Maximum-Head-Change  Column Row Layer    Maximum-Flux-Residual          L2-NORM 
          0                 1           2             1    1     1       0.3205552435E-02       3   13    1        -0.1755357654E+00      0.6186718693E+00
          0                 2           2             1    1     1      -0.3118131306E-03       3   13    1         0.1716523205E-01      0.6148861456E-01
          0                 3           1             1    1     1       0.2123331558E-04       1    1    1         0.1164864153E-02      0.4269791823E-02

    ------------------------------------------------
       NWT REQUIRED            3 OUTER ITERATIONS 
       AND A TOTAL OF          5 INNER ITERATIONS.
    ------------------------------------------------

 NO OUTPUT CONTROL FOR STRESS PERIOD   41   TIME STEP   11
 
 SOLVING FOR HEAD 
                                                   Max.-Head-Change                         Max.-Flux-Residual
  Residual-Control   Outer-Iter.   Inner-Iter.     Column Row Layer    Maximum-Head-Change  Column Row Layer    Maximum-Flux-Residual          L2-NORM 
          0                 1           2             1    1     1       0.3202203260E-02       1    1    1         0.1662347053E+00      0.6031748859E+00
          0                 2           2             1    1     1      -0.3114873461E-03       1    1    1        -0.1662348963E-01      0.6000187565E-01
          0                 3           1             1    1     1       0.2121113078E-04       1    1    1         0.1163644601E-02      0.4171554895E-02

    ------------------------------------------------
       NWT REQUIRED            3 OUTER ITERATIONS 
       AND A TOTAL OF          5 INNER ITERATIONS.
    ------------------------------------------------

 NO OUTPUT CONTROL FOR STRESS PERIOD   41   TIME STEP   12
 
 SOLVING FOR HEAD 
                                                   Max.-Head-Change                         Max.-Flux-Residual
  Residual-Control   Outer-Iter.   Inner-Iter.     Column Row Layer    Maximum-Head-Change  Column Row Layer    Maximum-Flux-Residual          L2-NORM 
          0                 1           2             1    1     1       0.3198865079E-02       1    1    1         0.1660610556E+00      0.5901723343E+00
          0                 2           2             1    1     1      -0.3111626308E-03       1    1    1        -0.1660612458E-01      0.5875564291E-01
          0                 3           1             1    1     1       0.2118901886E-04       1    1    1         0.1162429049E-02      0.4088966175E-02

    ------------------------------------------------
       NWT REQUIRED            3 OUTER ITERATIONS 
       AND A TOTAL OF          5 INNER ITERATIONS.
    ------------------------------------------------

 NO OUTPUT CONTROL FOR STRESS PERIOD   41   TIME STEP   13
 
 SOLVING FOR HEAD 
                                                   Max.-Head-Change                         Max.-Flux-Residual
  Residual-Control   Outer-Iter.   Inner-Iter.     Column Row Layer    Maximum-Head-Change  Column Row Layer    Maximum-Flux-Residual          L2-NORM 
          0                 1           2             1    1     1       0.3195537834E-02       1    1    1         0.1658879758E+00      0.5792432845E+00
          0                 2           2             1    1     1      -0.3108389794E-03       1    1    1        -0.1658881653E-01      0.5770729378E-01
          0                 3           1             1    1     1       0.2116697961E-04       1    1    1         0.1161217482E-02      0.4019830986E-02

    ------------------------------------------------
       NWT REQUIRED            3 OUTER ITERATIONS 
       AND A TOTAL OF          5 INNER ITERATIONS.
    ------------------------------------------------

 NO OUTPUT CONTROL FOR STRESS PERIOD   41   TIME STEP   14
 
 SOLVING FOR HEAD 
                                                   Max.-Head-Change                         Max.-Flux-Residual
  Residual-Control   Outer-Iter.   Inner-Iter.     Column Row Layer    Maximum-Head-Change  Column Row Layer    Maximum-Flux-Residual          L2-NORM 
          0                 1           2             1    1     1       0.3192221468E-02       1    1    1         0.1657154632E+00      0.5700319457E+00
          0                 2           2             1    1     1      -0.3105163858E-03       1    1    1        -0.1657156517E-01      0.5682395854E-01
          0                 3           1             1    1     1       0.2114501184E-04       1    1    1         0.1160009875E-02      0.3961146309E-02

    ------------------------------------------------
       NWT REQUIRED            3 OUTER ITERATIONS 
       AND A TOTAL OF          5 INNER ITERATIONS.
    ------------------------------------------------

 NO OUTPUT CONTROL FOR STRESS PERIOD   41   TIME STEP   15
 
 SOLVING FOR HEAD 
                                                   Max.-Head-Change                         Max.-Flux-Residual
  Residual-Control   Outer-Iter.   Inner-Iter.     Column Row Layer    Maximum-Head-Change  Column Row Layer    Maximum-Flux-Residual          L2-NORM 
          0                 1           2             1    1     1       0.3188915909E-02       1    1    1         0.1655435146E+00      0.5622580646E+00
          0                 2           2             1    1     1      -0.3101948442E-03       1    1    1        -0.1655437025E-01      0.5607829362E-01
          0                 3           1             1    1     1       0.2112311625E-04       1    1    1         0.1158806238E-02      0.3911885043E-02

    ------------------------------------------------
       NWT REQUIRED            3 OUTER ITERATIONS 
       AND A TOTAL OF          5 INNER ITERATIONS.
    ------------------------------------------------

 NO OUTPUT CONTROL FOR STRESS PERIOD   41   TIME STEP   16
 
 SOLVING FOR HEAD 
                                                   Max.-Head-Change                         Max.-Flux-Residual
  Residual-Control   Outer-Iter.   Inner-Iter.     Column Row Layer    Maximum-Head-Change  Column Row Layer    Maximum-Flux-Residual          L2-NORM 
          0                 1           2             1    1     1       0.3185597736E-02       1    1    1         0.1653709118E+00      0.5556556826E+00
          0                 2           2             1    1     1      -0.3098720752E-03       1    1    1        -0.1653710989E-01      0.5544396221E-01
          0                 3           1             1    1     1       0.2110113687E-04       1    1    1         0.1157598010E-02      0.3869838498E-02

    ------------------------------------------------
       NWT REQUIRED            3 OUTER ITERATIONS 
       AND A TOTAL OF          5 INNER ITERATIONS.
    ------------------------------------------------

 NO OUTPUT CONTROL FOR STRESS PERIOD   41   TIME STEP   17
 
 SOLVING FOR HEAD 
                                                   Max.-Head-Change                         Max.-Flux-Residual
  Residual-Control   Outer-Iter.   Inner-Iter.     Column Row Layer    Maximum-Head-Change  Column Row Layer    Maximum-Flux-Residual          L2-NORM 
          0                 1           2             1    1     1       0.3182313700E-02       1    1    1         0.1652000840E+00      0.5500274266E+00
          0                 2           2             1    1     1      -0.3095526269E-03       1    1    1        -0.1652002703E-01      0.5490287922E-01
          0                 3           1             1    1     1       0.2107938376E-04       1    1    1         0.1156402222E-02      0.3834119739E-02

    ------------------------------------------------
       NWT REQUIRED            3 OUTER ITERATIONS 
       AND A TOTAL OF          5 INNER ITERATIONS.
    ------------------------------------------------

 NO OUTPUT CONTROL FOR STRESS PERIOD   41   TIME STEP   18
 
 SOLVING FOR HEAD 
                                                   Max.-Head-Change                         Max.-Flux-Residual
  Residual-Control   Outer-Iter.   Inner-Iter.     Column Row Layer    Maximum-Head-Change  Column Row Layer    Maximum-Flux-Residual          L2-NORM 
          0                 1           2             1    1     1       0.3179040321E-02       1    1    1         0.1650298117E+00      0.5452084160E+00
          0                 2           2             1    1     1      -0.3092342153E-03       1    1    1        -0.1650299973E-01      0.5443893280E-01
          0                 3           1             1    1     1       0.2105770070E-04       1    1    1         0.1155210295E-02      0.3803019188E-02

    ------------------------------------------------
       NWT REQUIRED            3 OUTER ITERATIONS 
       AND A TOTAL OF          5 INNER ITERATIONS.
    ------------------------------------------------

 NO OUTPUT CONTROL FOR STRESS PERIOD   41   TIME STEP   19
 
 SOLVING FOR HEAD 
                                                   Max.-Head-Change                         Max.-Flux-Residual
  Residual-Control   Outer-Iter.   Inner-Iter.     Column Row Layer    Maximum-Head-Change  Column Row Layer    Maximum-Flux-Residual          L2-NORM 
          0                 1           2             1    1     1       0.3175754169E-02       1    1    1         0.1648588772E+00      0.5410475074E+00
          0                 2           2             1    1     1      -0.3089145611E-03       1    1    1        -0.1648590620E-01      0.5403788568E-01
          0                 3           1             1    1     1       0.2103593386E-04       1    1    1         0.1154013761E-02      0.3776640056E-02

    ------------------------------------------------
       NWT REQUIRED            3 OUTER ITERATIONS 
       AND A TOTAL OF          5 INNER ITERATIONS.
    ------------------------------------------------

 NO OUTPUT CONTROL FOR STRESS PERIOD   41   TIME STEP   20
 
 SOLVING FOR HEAD 
                                                   Max.-Head-Change                         Max.-Flux-Residual
  Residual-Control   Outer-Iter.   Inner-Iter.     Column Row Layer    Maximum-Head-Change  Column Row Layer    Maximum-Flux-Residual          L2-NORM 
          0                 1           2             1    1     1       0.3172501996E-02       1    1    1         0.1646897099E+00      0.5374254173E+00
          0                 2           2             1    1     1      -0.3085982123E-03       1    1    1        -0.1646898940E-01      0.5368784701E-01
          0                 3           1             1    1     1       0.2101439162E-04       1    1    1         0.1152829584E-02      0.3753064835E-02

    ------------------------------------------------
       NWT REQUIRED            3 OUTER ITERATIONS 
       AND A TOTAL OF          5 INNER ITERATIONS.
    ------------------------------------------------

 NO OUTPUT CONTROL FOR STRESS PERIOD   41   TIME STEP   21
 
 SOLVING FOR HEAD 
                                                   Max.-Head-Change                         Max.-Flux-Residual
  Residual-Control   Outer-Iter.   Inner-Iter.     Column Row Layer    Maximum-Head-Change  Column Row Layer    Maximum-Flux-Residual          L2-NORM 
          0                 1           2             1    1     1       0.3169260320E-02       1    1    1         0.1645210896E+00      0.5342555691E+00
          0                 2           2             1    1     1      -0.3082828841E-03       1    1    1        -0.1645212729E-01      0.5338085581E-01
          0                 3           1             1    1     1       0.2099291873E-04       1    1    1         0.1151649229E-02      0.3732511796E-02

    ------------------------------------------------
       NWT REQUIRED            3 OUTER ITERATIONS 
       AND A TOTAL OF          5 INNER ITERATIONS.
    ------------------------------------------------

 NO OUTPUT CONTROL FOR STRESS PERIOD   41   TIME STEP   22
 
 SOLVING FOR HEAD 
                                                   Max.-Head-Change                         Max.-Flux-Residual
  Residual-Control   Outer-Iter.   Inner-Iter.     Column Row Layer    Maximum-Head-Change  Column Row Layer    Maximum-Flux-Residual          L2-NORM 
          0                 1           2             1    1     1       0.3166005695E-02       1    1    1         0.1643517985E+00      0.5314485448E+00
          0                 2           2             1    1     1      -0.3079662971E-03       1    1    1        -0.1643519812E-01      0.5310824246E-01
          0                 3           1             1    1     1       0.2097136063E-04       1    1    1         0.1150464199E-02      0.3714262492E-02

    ------------------------------------------------
       NWT REQUIRED            3 OUTER ITERATIONS 
       AND A TOTAL OF          5 INNER ITERATIONS.
    ------------------------------------------------

 NO OUTPUT CONTROL FOR STRESS PERIOD   41   TIME STEP   23
 
 SOLVING FOR HEAD 
                                                   Max.-Head-Change                         Max.-Flux-Residual
  Residual-Control   Outer-Iter.   Inner-Iter.     Column Row Layer    Maximum-Head-Change  Column Row Layer    Maximum-Flux-Residual          L2-NORM 
          0                 1           2             1    1     1       0.3162784922E-02       1    1    1         0.1641842662E+00      0.5289573160E+00
          0                 2           2             1    1     1      -0.3076530026E-03       1    1    1        -0.1641844481E-01      0.5286591763E-01
          0                 3           1             1    1     1       0.2095002643E-04       1    1    1         0.1149291463E-02      0.3697915983E-02

    ------------------------------------------------
       NWT REQUIRED            3 OUTER ITERATIONS 
       AND A TOTAL OF          5 INNER ITERATIONS.
    ------------------------------------------------

 NO OUTPUT CONTROL FOR STRESS PERIOD   41   TIME STEP   24
 
 SOLVING FOR HEAD 
                                                   Max.-Head-Change                         Max.-Flux-Residual
  Residual-Control   Outer-Iter.   Inner-Iter.     Column Row Layer    Maximum-Head-Change  Column Row Layer    Maximum-Flux-Residual          L2-NORM 
          0                 1           2             1    1     1       0.3159551093E-02       1    1    1         0.1640160588E+00      0.5267130408E+00
          0                 2           2             1    1     1      -0.3073384383E-03       1    1    1        -0.1640162399E-01      0.5264722646E-01
          0                 3           1             1    1     1       0.2092860561E-04       1    1    1         0.1148114011E-02      0.3682915968E-02

    ------------------------------------------------
       NWT REQUIRED            3 OUTER ITERATIONS 
       AND A TOTAL OF          5 INNER ITERATIONS.
    ------------------------------------------------

 NO OUTPUT CONTROL FOR STRESS PERIOD   41   TIME STEP   25
 
 SOLVING FOR HEAD 
                                                   Max.-Head-Change                         Max.-Flux-Residual
  Residual-Control   Outer-Iter.   Inner-Iter.     Column Row Layer    Maximum-Head-Change  Column Row Layer    Maximum-Flux-Residual          L2-NORM 
          0                 1           2             1    1     1       0.3156350990E-02       1    1    1         0.1638496049E+00      0.5246869169E+00
          0                 2           2             1    1     1      -0.3070271541E-03       1    1    1        -0.1638497854E-01      0.5244829569E-01
          0                 3           1             1    1     1       0.2090740820E-04       1    1    1         0.1146948806E-02      0.3669650571E-02

    ------------------------------------------------
       NWT REQUIRED            3 OUTER ITERATIONS 
       AND A TOTAL OF          5 INNER ITERATIONS.
    ------------------------------------------------

 NO OUTPUT CONTROL FOR STRESS PERIOD   41   TIME STEP   26
 
 SOLVING FOR HEAD 
                                                   Max.-Head-Change                         Max.-Flux-Residual
  Residual-Control   Outer-Iter.   Inner-Iter.     Column Row Layer    Maximum-Head-Change  Column Row Layer    Maximum-Flux-Residual          L2-NORM 
          0                 1           2             1    1     1       0.2992122504E-02       1    1    1         0.1553180751E+00      0.5275287865E+00
          0                 2           2             1    1     1      -0.2910521642E-03       1    1    1        -0.1553182314E-01      0.5264626677E-01
          0                 3           1             1    1     1       0.1981957122E-04       1    1    1         0.1087227937E-02      0.3675820475E-02

    ------------------------------------------------
       NWT REQUIRED            3 OUTER ITERATIONS 
       AND A TOTAL OF          5 INNER ITERATIONS.
    ------------------------------------------------

 NO OUTPUT CONTROL FOR STRESS PERIOD   41   TIME STEP   27
 
 SOLVING FOR HEAD 
                                                   Max.-Head-Change                         Max.-Flux-Residual
  Residual-Control   Outer-Iter.   Inner-Iter.     Column Row Layer    Maximum-Head-Change  Column Row Layer    Maximum-Flux-Residual          L2-NORM 
          0                 1           2             2   13     1      -0.3873516558E-02       2   13    1        -0.2187978922E+00      0.6100071761E+00
          0                 2           2             2   13     1       0.3617765760E-03       2   13    1         0.2100661364E-01      0.6035059993E-01
          0                 3           1             3   13     1      -0.2985212530E-04       3   13    1        -0.1836446485E-02      0.4366346728E-02

    ------------------------------------------------
       NWT REQUIRED            3 OUTER ITERATIONS 
       AND A TOTAL OF          5 INNER ITERATIONS.
    ------------------------------------------------

 NO OUTPUT CONTROL FOR STRESS PERIOD   41   TIME STEP   28
 
 SOLVING FOR HEAD 
                                                   Max.-Head-Change                         Max.-Flux-Residual
  Residual-Control   Outer-Iter.   Inner-Iter.     Column Row Layer    Maximum-Head-Change  Column Row Layer    Maximum-Flux-Residual          L2-NORM 
          0                 1           2             2   13     1      -0.3571786396E-02       2   13    1        -0.2017627972E+00      0.5880392597E+00
          0                 2           2             2   13     1       0.3339412082E-03       2   13    1         0.1939123543E-01      0.5824633391E-01
          0                 3           1             2   13     1      -0.2148291997E-04       2   13    1        -0.1282212696E-02      0.4025838327E-02

    ------------------------------------------------
       NWT REQUIRED            3 OUTER ITERATIONS 
       AND A TOTAL OF          5 INNER ITERATIONS.
    ------------------------------------------------

 NO OUTPUT CONTROL FOR STRESS PERIOD   41   TIME STEP   29
 
 SOLVING FOR HEAD 
                                                   Max.-Head-Change                         Max.-Flux-Residual
  Residual-Control   Outer-Iter.   Inner-Iter.     Column Row Layer    Maximum-Head-Change  Column Row Layer    Maximum-Flux-Residual          L2-NORM 
          0                 1           2             2   13     1      -0.3293106047E-02       2   13    1        -0.1860263359E+00      0.5693416397E+00
          0                 2           2             2   13     1       0.3082010392E-03       2   13    1         0.1789717378E-01      0.5645751101E-01
          0                 3           1             2   13     1      -0.1986373162E-04       2   13    1        -0.1185639821E-02      0.3906161853E-02

    ------------------------------------------------
       NWT REQUIRED            3 OUTER ITERATIONS 
       AND A TOTAL OF          5 INNER ITERATIONS.
    ------------------------------------------------

 NO OUTPUT CONTROL FOR STRESS PERIOD   41   TIME STEP   30



 STREAM LISTING     PERIOD     41   STEP       30

 LAYER ROW COL. STREAM  RCH.  FLOW INTO     FLOW TO   FLOW OUT OF   OVRLND.     DIRECT     STREAM       STREAM     STREAM     STREAM   STREAMBED  STREAMBED
                SEG.NO.  NO.  STRM. RCH.    AQUIFER    STRM. RCH.    RUNOFF     PRECIP       ET          HEAD       DEPTH      WIDTH   CONDCTNC.   GRADIENT

   1    1    1     1     1    4.7249E+01  3.2762E-01   4.6921E+01  0.000E+00  0.000E+00  0.000E+00  1.09443E+03  1.381E+00  1.662E+01  7.477E-02  1.460E+00
   1    2    2     1     2    4.6921E+01  5.0759E-01   4.6413E+01  0.000E+00  0.000E+00  0.000E+00  1.08944E+03  1.379E+00  1.656E+01  1.159E-01  1.460E+00
   1    3    3     1     3    4.6413E+01  4.3309E-01   4.5980E+01  0.000E+00  0.000E+00  0.000E+00  1.08379E+03  1.376E+00  1.650E+01  9.898E-02  1.459E+00
   1    3    4     1     4    4.5980E+01  3.9899E-01   4.5581E+01  0.000E+00  0.000E+00  0.000E+00  1.07878E+03  1.373E+00  1.644E+01  9.124E-02  1.458E+00
   1    4    5     2     1    4.3581E+01  3.6514E-01   4.3216E+01  0.000E+00  0.000E+00  0.000E+00  1.07362E+03  1.681E+00  1.200E+01  7.800E-02  1.560E+00
   1    5    6     2     2    4.3216E+01  2.8042E-01   4.2936E+01  0.000E+00  0.000E+00  0.000E+00  1.06818E+03  1.674E+00  1.200E+01  6.000E-02  1.558E+00
   1    6    6     2     3    4.2936E+01  2.8003E-01   4.2656E+01  0.000E+00  0.000E+00  0.000E+00  1.06346E+03  1.667E+00  1.200E+01  6.000E-02  1.556E+00
   1    7    6     2     4    4.2656E+01  2.7964E-01   4.2376E+01  0.000E+00  0.000E+00  0.000E+00  1.05874E+03  1.661E+00  1.200E+01  6.000E-02  1.554E+00
   1    8    6     2     5    4.2376E+01  2.7924E-01   4.2097E+01  0.000E+00  0.000E+00  0.000E+00  1.05401E+03  1.654E+00  1.200E+01  6.000E-02  1.551E+00
   1    3    5     3     1    2.0000E+00  2.8252E-01   1.7175E+00  0.000E+00  0.000E+00  0.000E+00  1.07555E+03  1.909E+00  9.636E+00  7.227E-02  1.955E+00
   1    3    6     3     2    1.7175E+00  2.4905E-01   1.4684E+00  0.000E+00  0.000E+00  0.000E+00  1.07264E+03  1.727E+00  8.909E+00  6.682E-02  1.864E+00
   1    3    7     3     3    1.4684E+00  1.9718E-01   1.2712E+00  0.000E+00  0.000E+00  0.000E+00  1.06987E+03  1.555E+00  8.218E+00  5.547E-02  1.777E+00
   1    4    8     3     4    1.2712E+00  2.2567E-01   1.0456E+00  0.000E+00  0.000E+00  0.000E+00  1.06682E+03  1.364E+00  7.455E+00  6.709E-02  1.682E+00
   1    5    8     3     5    1.0456E+00  1.5790E-01   8.8768E-01  0.000E+00  0.000E+00  0.000E+00  1.06362E+03  1.164E+00  6.655E+00  4.991E-02  1.582E+00
   1    6    8     3     6    8.8768E-01  5.5980E-02   8.3170E-01  0.000E+00  0.000E+00  0.000E+00  1.06158E+03  1.036E+00  6.145E+00  1.844E-02  1.518E+00
   1    5   10     4     1    1.0000E+01  9.0919E-02   9.9091E+00  0.000E+00  0.000E+00  0.000E+00  1.07836E+03  6.368E-01  1.000E+01  2.500E-02  1.212E+00
   1    5    9     4     2    9.9091E+00  1.8158E-01   9.7275E+00  0.000E+00  0.000E+00  0.000E+00  1.07154E+03  6.315E-01  1.000E+01  5.000E-02  1.211E+00
   1    6    8     4     3    9.7275E+00  1.2689E-01   9.6006E+00  0.000E+00  0.000E+00  0.000E+00  1.06381E+03  6.256E-01  1.000E+01  3.500E-02  1.209E+00
   1    6    8     5     1    1.0432E+01  2.2686E-01   1.0205E+01  0.000E+00  0.000E+00  0.000E+00  1.05868E+03  6.790E-01  1.542E+01  6.166E-02  1.226E+00
   1    7    7     5     2    1.0205E+01  2.7894E-01   9.9265E+00  0.000E+00  0.000E+00  0.000E+00  1.05417E+03  6.732E-01  1.519E+01  7.594E-02  1.224E+00
   1    8    7     5     3    9.9265E+00  1.9221E-01   9.7343E+00  0.000E+00  0.000E+00  0.000E+00  1.04992E+03  6.676E-01  1.497E+01  5.241E-02  1.223E+00
   1    8    6     5     4    9.7343E+00  1.3577E-01   9.5985E+00  0.000E+00  0.000E+00  0.000E+00  1.04691E+03  6.637E-01  1.482E+01  3.706E-02  1.221E+00
   1    9    6     6     1    5.1695E+01  2.9310E-01   5.1402E+01  0.000E+00  0.000E+00  0.000E+00  1.04461E+03  1.885E+00  1.200E+01  6.000E-02  1.628E+00
   1   10    7     6     2    5.1402E+01  2.9271E-01   5.1110E+01  0.000E+00  0.000E+00  0.000E+00  1.04006E+03  1.879E+00  1.200E+01  6.000E-02  1.626E+00
   1   11    7     6     3    5.1110E+01  2.9233E-01   5.0817E+01  0.000E+00  0.000E+00  0.000E+00  1.03551E+03  1.872E+00  1.200E+01  6.000E-02  1.624E+00
   1   12    7     6     4    5.0817E+01  2.9194E-01   5.0525E+01  0.000E+00  0.000E+00  0.000E+00  1.03096E+03  1.866E+00  1.200E+01  6.000E-02  1.622E+00
   1   13    7     6     5    5.0525E+01  1.8584E-02   5.0507E+01  0.000E+00  0.000E+00  0.000E+00  1.02777E+03  1.862E+00  1.200E+01  2.400E-02  2.581E-01
   1   14    9     7     1    1.5000E+02  1.3483E+00   1.4865E+02  0.000E+00  0.000E+00  0.000E+00  1.03987E+03  2.288E+00  5.529E+01  5.593E-01  8.036E-01
   1   13    8     7     2    1.4865E+02  1.8692E+00   1.4678E+02  0.000E+00  0.000E+00  0.000E+00  1.03478E+03  2.279E+00  5.526E+01  6.148E-01  1.013E+00
   1   13    7     7     3    1.4678E+02  1.5036E+00   1.4528E+02  0.000E+00  0.000E+00  0.000E+00  1.02969E+03  2.270E+00  5.522E+01  5.584E-01  8.975E-01
   1   13    6     8     1    1.9579E+02  1.0482E+00   1.9474E+02  0.000E+00  0.000E+00  0.000E+00  1.02498E+03  3.110E+00  4.509E+01  4.595E-01  7.604E-01
   1   13    5     8     2    1.9474E+02  2.4839E-01   1.9449E+02  0.000E+00  0.000E+00  0.000E+00  1.01873E+03  3.106E+00  4.503E+01  4.589E-01  1.804E-01
   1   13    4     8     3    1.9449E+02 -2.3675E+00   1.9686E+02  0.000E+00  0.000E+00  0.000E+00  1.01249E+03  3.112E+00  4.513E+01  4.598E+00 -1.716E-01
   1   13    3     8     4    1.9686E+02 -3.6425E+00   2.0050E+02  0.000E+00  0.000E+00  0.000E+00  1.00625E+03  3.130E+00  4.538E+01  4.625E+00 -2.625E-01
   1   13    2     8     5    2.0050E+02 -2.6897E+00   2.0319E+02  0.000E+00  0.000E+00  0.000E+00  1.00002E+03  3.149E+00  4.565E+01  4.652E+00 -1.927E-01
   1   13    1     8     6    2.0319E+02 -2.0729E+00   2.0526E+02  0.000E+00  0.000E+00  0.000E+00  9.95037E+02  3.162E+00  4.586E+01  2.804E+00 -2.465E-01
   1    8    6     9     1    0.0000E+00  0.0000E+00   0.0000E+00  0.000E+00  0.000E+00  0.000E+00  1.07875E+03  0.000E+00  4.000E+00  0.000E+00  1.000E+00
   1    8    5     9     2    0.0000E+00  0.0000E+00   0.0000E+00  0.000E+00  0.000E+00  0.000E+00  1.07825E+03  0.000E+00  4.000E+00  0.000E+00  1.000E+00





UNSATURATED ZONE PACKAGE VOLUMETRIC BUDGET FOR  TIME STEP    30 STRESS PERIOD   41
  ------------------------------------------------------------------------------



     CUMULATIVE VOLUMES      L**3       RATES FOR THIS TIME STEP      L**3/T
     ------------------                 ------------------------

           IN:                                      IN:
           ---                                      ---
        INFILTRATION =  1434324304.4476          INFILTRATION =           0.8475

          OUT:                                     OUT:
          ----                                     ----
              UZF ET =  1294509752.4586                UZF ET =           0.8475
        UZF RECHARGE =       73224.0000          UZF RECHARGE =       0.0000E+00

            IN - OUT =   139741327.9891              IN - OUT =       0.0000E+00

          STORAGE:                                 STORAGE:
          --------                                 --------
      STORAGE CHANGE =   139742684.7358        STORAGE CHANGE =      -5.9541E-13

 PERCENT DISCREPANCY IS DIFFERENCE BETWEEN IN-OUT MINUS CHANGE IN STORAGE
 DIVIDED BY THE AVERAGE OF IN AND OUT TIMES 100

 PERCENT DISCREPANCY =          -0.00     PERCENT DISCREPANCY =           0.00






1
  VOLUMETRIC BUDGET FOR AGRICULTURAL FIELDS AT  END OF TIME STEP   30, STRESS PERIOD  41
  ------------------------------------------------------------------------------

     CUMULATIVE VOLUMES      L**3       RATES FOR THIS TIME STEP      L**3/T
     ------------------                 ------------------------

           IN:                                      IN:
           ---                                      ---
               AG WELLS  =   381194528.0000                 AG WELLS  =           0.0000
      DIVERSION SEGMENTS =   963956736.0000        DIVERSION SEGMENTS =           0.0000
       IRRIGATION PONDS  =           0.0000         IRRIGATION PONDS  =           0.0000
           GW IRRIGATION =           0.0000             GW IRRIGATION =           0.0000
           SW IRRIGATION =           0.0000             SW IRRIGATION =           0.0000
        SYSTEM LOSSES GW =           0.0000          SYSTEM LOSSES GW =           0.0000
        SYSTEM LOSSES SW =           0.0000          SYSTEM LOSSES SW =           0.0000

                TOTAL IN =  1345151232.0000                  TOTAL IN =           0.0000

          OUT:                                     OUT:
          ----                                     ----
               AG WELLS  =           0.0000                 AG WELLS  =           0.0000
      DIVERSION SEGMENTS =           0.0000        DIVERSION SEGMENTS =           0.0000
       IRRIGATION PONDS  =           0.0000         IRRIGATION PONDS  =           0.0000
           GW IRRIGATION =   381194528.0000             GW IRRIGATION =           0.0000
           SW IRRIGATION =   963976704.0000             SW IRRIGATION =           0.0000
        SYSTEM LOSSES GW =           0.0000          SYSTEM LOSSES GW =           0.0000
        SYSTEM LOSSES SW =           0.0000          SYSTEM LOSSES SW =           0.0000

               TOTAL OUT =  1345171200.0000                 TOTAL OUT =           0.0000

                IN - OUT =      -19968.0000                  IN - OUT =           0.0000

     PERCENT DISCREPANCY =          -0.00         PERCENT DISCREPANCY =           0.00



1
  VOLUMETRIC BUDGET FOR ENTIRE MODEL AT END OF TIME STEP   30, STRESS PERIOD  41
  ------------------------------------------------------------------------------

     CUMULATIVE VOLUMES      L**3       RATES FOR THIS TIME STEP      L**3/T
     ------------------                 ------------------------

           IN:                                      IN:
           ---                                      ---
             STORAGE     =   675780416.0000               STORAGE     =           1.1615
       CONSTANT HEAD     =           0.0000         CONSTANT HEAD     =           0.0000
     HEAD DEP BOUNDS     =    30104394.0000       HEAD DEP BOUNDS     =           0.2866
      STREAM LEAKAGE     =  1264421504.0000        STREAM LEAKAGE     =          12.7595
        UZF RECHARGE     =       73223.9531          UZF RECHARGE     =           0.0000
               GW ET     =           0.0000                 GW ET     =           0.0000
     SURFACE LEAKAGE     =           0.0000       SURFACE LEAKAGE     =           0.0000
           AG WELLS      =           0.0000             AG WELLS      =           0.0000

                TOTAL IN =  1970379520.0000                  TOTAL IN =          14.2076

          OUT:                                     OUT:
          ----                                     ----
             STORAGE     =   431032672.0000               STORAGE     =           3.0849
       CONSTANT HEAD     =           0.0000         CONSTANT HEAD     =           0.0000
     HEAD DEP BOUNDS     =    30613716.0000       HEAD DEP BOUNDS     =           0.2955
      STREAM LEAKAGE     =  1124263936.0000        STREAM LEAKAGE     =          10.7727
        UZF RECHARGE     =           0.0000          UZF RECHARGE     =           0.0000
               GW ET     =     3285088.0000                 GW ET     =       5.5135E-02
     SURFACE LEAKAGE     =           0.0000       SURFACE LEAKAGE     =           0.0000
           AG WELLS      =   381194528.0000             AG WELLS      =           0.0000

               TOTAL OUT =  1970389888.0000                 TOTAL OUT =          14.2082

                IN - OUT =      -10368.0000                  IN - OUT =      -5.4455E-04

     PERCENT DISCREPANCY =          -0.00         PERCENT DISCREPANCY =          -0.00






         TIME SUMMARY AT END OF TIME STEP   30 IN STRESS PERIOD   41
                    SECONDS     MINUTES      HOURS       DAYS        YEARS
                    -----------------------------------------------------------
   TIME STEP LENGTH  87667.      1461.1      24.352      1.0147     2.77799E-03
 STRESS PERIOD TIME 2.63000E+06  43833.      730.56      30.440     8.33397E-02
         TOTAL TIME 1.05286E+08 1.75476E+06  29246.      1218.6      3.3363    
1
1
                            STRESS PERIOD NO.   42, LENGTH =   2630000.    
                            -----------------------------------------------

                              NUMBER OF TIME STEPS =    30

                               MULTIPLIER FOR DELT =     1.000

                            INITIAL TIME STEP SIZE =   87666.66    

 REUSING NON-PARAMETER GHB CELLS FROM LAST STRESS PERIOD

      2 GHB CELLS

 REUSING STREAM SEGMENT DATA FROM LAST STRESS PERIOD



            AREAL INFILTRATION RATE
 READING ON UNIT   19 WITH FORMAT: (FREE)              

            1           2           3           4           5           6           7           8           9          10
 ........................................................................................................................
   1   1.0000E-10  2.0000E-10   0.000       0.000       0.000       0.000       0.000       0.000       0.000       0.000    
   2   2.0000E-10  1.0000E-10  2.0000E-10   0.000       0.000      8.0000E-10  8.0000E-10  5.0000E-10   0.000       0.000    
   3    0.000      5.0000E-10  1.0000E-10  1.0000E-10  8.0000E-10  8.0000E-10  5.0000E-10  5.0000E-10   0.000       0.000    
   4   8.0000E-10  5.0000E-10  1.0000E-10  1.0000E-10  1.0000E-10  1.0000E-10  1.0000E-10  1.0000E-10  2.0000E-10   0.000    
   5   8.0000E-10  5.0000E-10  1.0000E-10  1.0000E-10  1.0000E-10  1.0000E-10  1.0000E-10  1.0000E-10  1.0000E-10  1.0000E-10
   6   8.0000E-10  5.0000E-10  5.0000E-10  2.0000E-10  2.0000E-10  1.0000E-10  1.0000E-10  1.0000E-10  1.0000E-10  5.0000E-10
   7   8.0000E-10  5.0000E-10  5.0000E-10  2.0000E-10  2.0000E-10  1.0000E-10  1.0000E-10  2.0000E-10  2.0000E-10   0.000    
   8    0.000      5.0000E-10  5.0000E-10  2.0000E-10  2.0000E-10  1.0000E-10  1.0000E-10  2.0000E-10  5.0000E-10   0.000    
   9    0.000      5.0000E-10  5.0000E-10  2.0000E-10  2.0000E-10  1.0000E-10  1.0000E-10  2.0000E-10  5.0000E-10   0.000    
  10    0.000      5.0000E-10  5.0000E-10  2.0000E-10  2.0000E-10  1.0000E-10  1.0000E-10  2.0000E-10  5.0000E-10  8.0000E-10
  11    0.000      1.0000E-10  1.0000E-10  1.0000E-10  1.0000E-10  1.0000E-10  1.0000E-10  2.0000E-10  5.0000E-10   0.000    
  12   1.0000E-10  1.0000E-10  1.0000E-10  1.0000E-10  1.0000E-10  1.0000E-10  1.0000E-10  1.0000E-10  2.0000E-10   0.000    
  13   1.0000E-10  1.0000E-10  2.0000E-10  2.0000E-10  2.0000E-10  2.0000E-10  2.0000E-10  1.0000E-10  1.0000E-10   0.000    
  14    0.000      2.0000E-10  5.0000E-10  5.0000E-10  5.0000E-10  5.0000E-10  5.0000E-10  2.0000E-10  1.0000E-10   0.000    
  15    0.000       0.000      8.0000E-10  8.0000E-10  8.0000E-10  8.0000E-10   0.000       0.000       0.000       0.000    

                  ET RATE =  5.000000E-08

 USING ET EXTINCTION DEPTH FROM PREVIOUS STRESS PERIOD. CURRENT PERIOD IS:      42

 USING EXTINCTION WATER CONTENT FROM PREVIOUS STRESS PERIOD. CURRENT PERIOD IS:      42

 USING AIR ENTRY PRESSURE FROM PREVIOUS STRESS PERIOD. CURRENT PERIOD IS:      42

 USING ROOT PRESSURE HEAD FROM PREVIOUS STRESS PERIOD. CURRENT PERIOD IS:      42

 USING ROOT ACTIVITY FROM PREVIOUS STRESS PERIOD. CURRENT PERIOD IS:      42

 PROCESSING AG STRESS PERIOD DATA

 READING AG STRESS PERIOD DATA

 READING IRRIGATION SEGMENT

 READING IRRIGATION WELL

 READING SUPPLEMENTAL WELL

 NO IRRPOND OR REUSING IRRPOND DATA FROM LAST STRESS PERIOD

 END PROCESSING AG STRESS PERIOD DATA OPTIONS
 
 SOLVING FOR HEAD 
                                                   Max.-Head-Change                         Max.-Flux-Residual
  Residual-Control   Outer-Iter.   Inner-Iter.     Column Row Layer    Maximum-Head-Change  Column Row Layer    Maximum-Flux-Residual          L2-NORM 
          0                 1           2             2   13     1      -0.5790991697E-02       3   13    1        -0.3378947719E+00      0.7631003601E+00
          0                 2           2             4    7     1      -0.2340042211E-01       4    7    1        -0.1256736923E+01      0.3084999655E+01
          0                 3           2             4    7     1       0.2414453929E-01       4    7    1         0.1332971073E+01      0.3265019452E+01
          0                 4           2             4    7     1      -0.9607490744E-03       4    7    1        -0.5451950212E-01      0.1335474200E+00
          0                 5           1             4    7     1       0.1185188787E-04       4    7    1         0.6912471108E-03      0.1694140298E-02

    ------------------------------------------------
       NWT REQUIRED            5 OUTER ITERATIONS 
       AND A TOTAL OF          9 INNER ITERATIONS.
    ------------------------------------------------

 NO OUTPUT CONTROL FOR STRESS PERIOD   42   TIME STEP    1
 
 SOLVING FOR HEAD 
                                                   Max.-Head-Change                         Max.-Flux-Residual
  Residual-Control   Outer-Iter.   Inner-Iter.     Column Row Layer    Maximum-Head-Change  Column Row Layer    Maximum-Flux-Residual          L2-NORM 
          0                 1           2             1    1     1       0.2542530902E-02       3   13    1        -0.1354489471E+00      0.5276644336E+00
          0                 2           2             1    1     1      -0.2473190735E-03       3   13    1         0.1328531026E-01      0.5248206691E-01
          0                 3           1             1    1     1       0.1684151074E-04       1    1    1         0.9237367841E-03      0.3647713570E-02

    ------------------------------------------------
       NWT REQUIRED            3 OUTER ITERATIONS 
       AND A TOTAL OF          5 INNER ITERATIONS.
    ------------------------------------------------

 NO OUTPUT CONTROL FOR STRESS PERIOD   42   TIME STEP    2
 
 SOLVING FOR HEAD 
                                                   Max.-Head-Change                         Max.-Flux-Residual
  Residual-Control   Outer-Iter.   Inner-Iter.     Column Row Layer    Maximum-Head-Change  Column Row Layer    Maximum-Flux-Residual          L2-NORM 
          0                 1           2             1    1     1       0.2540400401E-02       1    1    1         0.1318514999E+00      0.5176153671E+00
          0                 2           2             4    7     1      -0.2338616628E-01       4    7    1        -0.1255971792E+01      0.3086063870E+01
          0                 3           2             4    7     1       0.2413126543E-01       4    7    1         0.1332238419E+01      0.3263250066E+01
          0                 4           2             4    7     1      -0.9602208839E-03       4    7    1        -0.5448953587E-01      0.1334768471E+00
          0                 5           1             4    7     1       0.1184673743E-04       4    7    1         0.6909468088E-03      0.1693607428E-02

    ------------------------------------------------
       NWT REQUIRED            5 OUTER ITERATIONS 
       AND A TOTAL OF          9 INNER ITERATIONS.
    ------------------------------------------------

 NO OUTPUT CONTROL FOR STRESS PERIOD   42   TIME STEP    3
 
 SOLVING FOR HEAD 
                                                   Max.-Head-Change                         Max.-Flux-Residual
  Residual-Control   Outer-Iter.   Inner-Iter.     Column Row Layer    Maximum-Head-Change  Column Row Layer    Maximum-Flux-Residual          L2-NORM 
          0                 1           2             1    1     1       0.2538276250E-02       1    1    1         0.1317410748E+00      0.5003079791E+00
          0                 2           2             1    1     1      -0.2469052112E-03       1    1    1        -0.1317411730E-01      0.4987587763E-01
          0                 3           2             4    7     1      -0.2309856838E-01       5    8    1        -0.1240643724E+01      0.3052419845E+01
          0                 4           2             4    7     1       0.2405827919E-01       5    6    1         0.1328205902E+01      0.3253437554E+01
          0                 5           2             4    7     1      -0.9575436470E-03       4    8    1        -0.5433838151E-01      0.1330991926E+00
          0                 6           1             4    7     1       0.1182249155E-04       4    8    1         0.6895407882E-03      0.1689000988E-02

    ------------------------------------------------
       NWT REQUIRED            6 OUTER ITERATIONS 
       AND A TOTAL OF         11 INNER ITERATIONS.
    ------------------------------------------------

 NO OUTPUT CONTROL FOR STRESS PERIOD   42   TIME STEP    4
 
 SOLVING FOR HEAD 
                                                   Max.-Head-Change                         Max.-Flux-Residual
  Residual-Control   Outer-Iter.   Inner-Iter.     Column Row Layer    Maximum-Head-Change  Column Row Layer    Maximum-Flux-Residual          L2-NORM 
          0                 1           2             1    1     1       0.2536134249E-02       1    1    1         0.1316297245E+00      0.4877298898E+00
          0                 2           2             1    1     1      -0.2466968520E-03       1    1    1        -0.1316298223E-01      0.4868119549E-01
          0                 3           2             4    7     1      -0.2309994687E-01       5    8    1        -0.1240718354E+01      0.3052611449E+01
          0                 4           2             4    7     1       0.2405965880E-01       5    6    1         0.1328282156E+01      0.3253624320E+01
          0                 5           2             4    7     1      -0.9575957558E-03       4    8    1        -0.5434134053E-01      0.1331064432E+00
          0                 6           1             4    7     1       0.1182040895E-04       4    8    1         0.6894193475E-03      0.1688703364E-02

    ------------------------------------------------
       NWT REQUIRED            6 OUTER ITERATIONS 
       AND A TOTAL OF         11 INNER ITERATIONS.
    ------------------------------------------------

 NO OUTPUT CONTROL FOR STRESS PERIOD   42   TIME STEP    5
 
 SOLVING FOR HEAD 
                                                   Max.-Head-Change                         Max.-Flux-Residual
  Residual-Control   Outer-Iter.   Inner-Iter.     Column Row Layer    Maximum-Head-Change  Column Row Layer    Maximum-Flux-Residual          L2-NORM 
          0                 1           2             1    1     1       0.2534021269E-02       1    1    1         0.1315198809E+00      0.4789758841E+00
          0                 2           2             1    1     1      -0.2464913161E-03       1    1    1        -0.1315199784E-01      0.4784960687E-01
          0                 3           2             4    7     1      -0.2310127883E-01       5    8    1        -0.1240790576E+01      0.3052796068E+01
          0                 4           2             4    7     1       0.2406099208E-01       5    6    1         0.1328355860E+01      0.3253804817E+01
          0                 5           2             4    7     1      -0.9576516234E-03       4    8    1        -0.5434451290E-01      0.1331142162E+00
          0                 6           1             4    7     1       0.1182382387E-04       4    8    1         0.6896185605E-03      0.1689190880E-02

    ------------------------------------------------
       NWT REQUIRED            6 OUTER ITERATIONS 
       AND A TOTAL OF         11 INNER ITERATIONS.
    ------------------------------------------------

 NO OUTPUT CONTROL FOR STRESS PERIOD   42   TIME STEP    6
 
 SOLVING FOR HEAD 
                                                   Max.-Head-Change                         Max.-Flux-Residual
  Residual-Control   Outer-Iter.   Inner-Iter.     Column Row Layer    Maximum-Head-Change  Column Row Layer    Maximum-Flux-Residual          L2-NORM 
          0                 1           2             1    1     1       0.2531913806E-02       1    1    1         0.1314103259E+00      0.4732605290E+00
          0                 2           2             1    1     1      -0.2462863172E-03       1    1    1        -0.1314104232E-01      0.4730612447E-01
          0                 3           2             4    7     1      -0.2310257469E-01       5    8    1        -0.1240860632E+01      0.3052975186E+01
          0                 4           2             4    7     1       0.2406228619E-01       5    6    1         0.1328427383E+01      0.3253980004E+01
          0                 5           2             4    7     1      -0.9577003290E-03       4    8    1        -0.5434727878E-01      0.1331209944E+00
          0                 6           1             4    7     1       0.1182169960E-04       4    8    1         0.6894946846E-03      0.1688887670E-02

    ------------------------------------------------
       NWT REQUIRED            6 OUTER ITERATIONS 
       AND A TOTAL OF         11 INNER ITERATIONS.
    ------------------------------------------------

 NO OUTPUT CONTROL FOR STRESS PERIOD   42   TIME STEP    7
 
 SOLVING FOR HEAD 
                                                   Max.-Head-Change                         Max.-Flux-Residual
  Residual-Control   Outer-Iter.   Inner-Iter.     Column Row Layer    Maximum-Head-Change  Column Row Layer    Maximum-Flux-Residual          L2-NORM 
          0                 1           2             1    1     1       0.2529811865E-02       1    1    1         0.1313010570E+00      0.4699154551E+00
          0                 2           2             1    1     1      -0.2460818552E-03       1    1    1        -0.1313011539E-01      0.4698665762E-01
          0                 3           2             4    7     1      -0.2310382848E-01       5    8    1        -0.1240928522E+01      0.3053148394E+01
          0                 4           2             4    7     1       0.2406353857E-01       5    6    1         0.1328496612E+01      0.3254173828E+01
          0                 5           2             4    7     1      -0.9577529762E-03       4    8    1        -0.5435026855E-01      0.1331296563E+00
          0                 6           1             4    7     1       0.1182507464E-04       4    8    1         0.6896915570E-03      0.1689383851E-02

    ------------------------------------------------
       NWT REQUIRED            6 OUTER ITERATIONS 
       AND A TOTAL OF         11 INNER ITERATIONS.
    ------------------------------------------------

 NO OUTPUT CONTROL FOR STRESS PERIOD   42   TIME STEP    8
 
 SOLVING FOR HEAD 
                                                   Max.-Head-Change                         Max.-Flux-Residual
  Residual-Control   Outer-Iter.   Inner-Iter.     Column Row Layer    Maximum-Head-Change  Column Row Layer    Maximum-Flux-Residual          L2-NORM 
          0                 1           2             1    1     1       0.2527715396E-02       1    1    1         0.1311920744E+00      0.4683879536E+00
          0                 2           2             1    1     1      -0.2458779250E-03       1    1    1        -0.1311921708E-01      0.4683853407E-01
          0                 3           2             4    7     1      -0.2310505086E-01       5    8    1        -0.1240994562E+01      0.3053316379E+01
          0                 4           2             4    7     1       0.2406475643E-01       5    6    1         0.1328563923E+01      0.3254338695E+01
          0                 5           2             4    7     1      -0.9578014486E-03       4    8    1        -0.5435302113E-01      0.1331364058E+00
          0                 6           1             4    7     1       0.1182567258E-04       4    8    1         0.6897264548E-03      0.1689475317E-02

    ------------------------------------------------
       NWT REQUIRED            6 OUTER ITERATIONS 
       AND A TOTAL OF         11 INNER ITERATIONS.
    ------------------------------------------------

 NO OUTPUT CONTROL FOR STRESS PERIOD   42   TIME STEP    9
 
 SOLVING FOR HEAD 
                                                   Max.-Head-Change                         Max.-Flux-Residual
  Residual-Control   Outer-Iter.   Inner-Iter.     Column Row Layer    Maximum-Head-Change  Column Row Layer    Maximum-Flux-Residual          L2-NORM 
          0                 1           2             1    1     1       0.2525624406E-02       1    1    1         0.1310833755E+00      0.4682154014E+00
          0                 2           2             1    1     1      -0.2456745289E-03       1    1    1        -0.1310834718E-01      0.4681776952E-01
          0                 3           2             4    7     1      -0.2310623491E-01       5    8    1        -0.1241058481E+01      0.3053478981E+01
          0                 4           2             4    7     1       0.2406593496E-01       5    6    1         0.1328629060E+01      0.3254498254E+01
          0                 5           2             4    7     1      -0.9578455544E-03       4    8    1        -0.5435552597E-01      0.1331425433E+00
          0                 6           1             4    7     1       0.1182349186E-04       4    8    1         0.6895992738E-03      0.1689156579E-02

    ------------------------------------------------
       NWT REQUIRED            6 OUTER ITERATIONS 
       AND A TOTAL OF         11 INNER ITERATIONS.
    ------------------------------------------------

 NO OUTPUT CONTROL FOR STRESS PERIOD   42   TIME STEP   10
 
 SOLVING FOR HEAD 
                                                   Max.-Head-Change                         Max.-Flux-Residual
  Residual-Control   Outer-Iter.   Inner-Iter.     Column Row Layer    Maximum-Head-Change  Column Row Layer    Maximum-Flux-Residual          L2-NORM 
          0                 1           2             1    1     1       0.2523538845E-02       1    1    1         0.1309749607E+00      0.4690375027E+00
          0                 2           2             1    1     1      -0.2454716602E-03       1    1    1        -0.1309750566E-01      0.4689076912E-01
          0                 3           2             4    7     1      -0.2310738505E-01       5    8    1        -0.1241120521E+01      0.3053636453E+01
          0                 4           2             4    7     1       0.2406707881E-01       5    6    1         0.1328692276E+01      0.3254664190E+01
          0                 5           2             4    7     1      -0.9578938822E-03       4    8    1        -0.5435827034E-01      0.1331497846E+00
          0                 6           1             4    7     1       0.1182681357E-04       4    8    1         0.6897930316E-03      0.1689634419E-02

    ------------------------------------------------
       NWT REQUIRED            6 OUTER ITERATIONS 
       AND A TOTAL OF         11 INNER ITERATIONS.
    ------------------------------------------------

 NO OUTPUT CONTROL FOR STRESS PERIOD   42   TIME STEP   11
 
 SOLVING FOR HEAD 
                                                   Max.-Head-Change                         Max.-Flux-Residual
  Residual-Control   Outer-Iter.   Inner-Iter.     Column Row Layer    Maximum-Head-Change  Column Row Layer    Maximum-Flux-Residual          L2-NORM 
          0                 1           2             1    1     1       0.2521435296E-02       1    1    1         0.1308656107E+00      0.4705693877E+00
          0                 2           2             1    1     1      -0.2452670415E-03       1    1    1        -0.1308657063E-01      0.4703060585E-01
          0                 3           2             4    7     1      -0.2310850284E-01       5    8    1        -0.1241180869E+01      0.3053789297E+01
          0                 4           2             4    7     1       0.2406819024E-01       5    6    1         0.1328753706E+01      0.3254814676E+01
          0                 5           2             4    7     1      -0.9579381181E-03       4    8    1        -0.5436078280E-01      0.1331559454E+00
          0                 6           1             4    7     1       0.1182735909E-04       4    8    1         0.6898248939E-03      0.1689714683E-02

    ------------------------------------------------
       NWT REQUIRED            6 OUTER ITERATIONS 
       AND A TOTAL OF         11 INNER ITERATIONS.
    ------------------------------------------------

 NO OUTPUT CONTROL FOR STRESS PERIOD   42   TIME STEP   12
 
 SOLVING FOR HEAD 
                                                   Max.-Head-Change                         Max.-Flux-Residual
  Residual-Control   Outer-Iter.   Inner-Iter.     Column Row Layer    Maximum-Head-Change  Column Row Layer    Maximum-Flux-Residual          L2-NORM 
          0                 1           2             1    1     1       0.2519360600E-02       1    1    1         0.1307577614E+00      0.4725779405E+00
          0                 2           2             1    1     1      -0.2450652299E-03       1    1    1        -0.1307578567E-01      0.4721458730E-01
          0                 3           2             4    7     1      -0.2310959070E-01       5    8    1        -0.1241239509E+01      0.3053937669E+01
          0                 4           2             4    7     1       0.2406926939E-01       5    6    1         0.1328813343E+01      0.3254960779E+01
          0                 5           2             4    7     1      -0.9579810696E-03       4    8    1        -0.5436322207E-01      0.1331619240E+00
          0                 6           1             4    7     1       0.1182788915E-04       4    8    1         0.6898558340E-03      0.1689788858E-02

    ------------------------------------------------
       NWT REQUIRED            6 OUTER ITERATIONS 
       AND A TOTAL OF         11 INNER ITERATIONS.
    ------------------------------------------------

 NO OUTPUT CONTROL FOR STRESS PERIOD   42   TIME STEP   13
 
 SOLVING FOR HEAD 
                                                   Max.-Head-Change                         Max.-Flux-Residual
  Residual-Control   Outer-Iter.   Inner-Iter.     Column Row Layer    Maximum-Head-Change  Column Row Layer    Maximum-Flux-Residual          L2-NORM 
          0                 1           2             1    1     1       0.2517291296E-02       1    1    1         0.1306501914E+00      0.4749037125E+00
          0                 2           2             1    1     1      -0.2448639428E-03       1    1    1        -0.1306502865E-01      0.4742963459E-01
          0                 3           2             4    7     1      -0.2311064849E-01       5    8    1        -0.1241296424E+01      0.3054081670E+01
          0                 4           2             4    7     1       0.2407031843E-01       5    6    1         0.1328871315E+01      0.3255102797E+01
          0                 5           2             4    7     1      -0.9580228226E-03       4    8    1        -0.5436559347E-01      0.1331677281E+00
          0                 6           1             4    7     1       0.1182840442E-04       4    8    1         0.6898859015E-03      0.1689861994E-02

    ------------------------------------------------
       NWT REQUIRED            6 OUTER ITERATIONS 
       AND A TOTAL OF         11 INNER ITERATIONS.
    ------------------------------------------------

 NO OUTPUT CONTROL FOR STRESS PERIOD   42   TIME STEP   14
 
 SOLVING FOR HEAD 
                                                   Max.-Head-Change                         Max.-Flux-Residual
  Residual-Control   Outer-Iter.   Inner-Iter.     Column Row Layer    Maximum-Head-Change  Column Row Layer    Maximum-Flux-Residual          L2-NORM 
          0                 1           2             1    1     1       0.2515227336E-02       1    1    1         0.1305429010E+00      0.4774019907E+00
          0                 2           2             1    1     1      -0.2446631747E-03       1    1    1        -0.1305429956E-01      0.4765923818E-01
          0                 3           2             4    7     1      -0.2311167783E-01       5    8    1        -0.1241351821E+01      0.3054221698E+01
          0                 4           2             4    7     1       0.2407133746E-01       5    6    1         0.1328927626E+01      0.3255240771E+01
          0                 5           2             4    7     1      -0.9580633815E-03       4    8    1        -0.5436789695E-01      0.1331733741E+00
          0                 6           1             4    7     1       0.1182890469E-04       4    8    1         0.6899151194E-03      0.1689939912E-02

    ------------------------------------------------
       NWT REQUIRED            6 OUTER ITERATIONS 
       AND A TOTAL OF         11 INNER ITERATIONS.
    ------------------------------------------------

 NO OUTPUT CONTROL FOR STRESS PERIOD   42   TIME STEP   15
 
 SOLVING FOR HEAD 
                                                   Max.-Head-Change                         Max.-Flux-Residual
  Residual-Control   Outer-Iter.   Inner-Iter.     Column Row Layer    Maximum-Head-Change  Column Row Layer    Maximum-Flux-Residual          L2-NORM 
          0                 1           2             1    1     1       0.2513145298E-02       1    1    1         0.1304346706E+00      0.4799880664E+00
          0                 2           2             1    1     1      -0.2444606491E-03       1    1    1        -0.1304347651E-01      0.4789799225E-01
          0                 3           2             4    7     1      -0.2311268240E-01       5    8    1        -0.1241405786E+01      0.3054357898E+01
          0                 4           2             4    7     1       0.2407233107E-01       5    6    1         0.1328982530E+01      0.3255375286E+01
          0                 5           2             4    7     1      -0.9581029282E-03       4    8    1        -0.5437014312E-01      0.1331788788E+00
          0                 6           1             4    7     1       0.1182939263E-04       4    8    1         0.6899435903E-03      0.1690002046E-02

    ------------------------------------------------
       NWT REQUIRED            6 OUTER ITERATIONS 
       AND A TOTAL OF         11 INNER ITERATIONS.
    ------------------------------------------------

 NO OUTPUT CONTROL FOR STRESS PERIOD   42   TIME STEP   16
 
 SOLVING FOR HEAD 
                                                   Max.-Head-Change                         Max.-Flux-Residual
  Residual-Control   Outer-Iter.   Inner-Iter.     Column Row Layer    Maximum-Head-Change  Column Row Layer    Maximum-Flux-Residual          L2-NORM 
          0                 1           2             1    1     1       0.2511092060E-02       1    1    1         0.1303279369E+00      0.4825760394E+00
          0                 2           2             1    1     1      -0.2442609246E-03       1    1    1        -0.1303280311E-01      0.4813706300E-01
          0                 3           2             4    7     1      -0.2311365736E-01       5    8    1        -0.1241458077E+01      0.3054489664E+01
          0                 4           2             4    7     1       0.2407329241E-01       5    6    1         0.1329035653E+01      0.3255505427E+01
          0                 5           2             4    7     1      -0.9581383902E-03       4    8    1        -0.5437215722E-01      0.1331838102E+00
          0                 6           1             4    7     1       0.1182710526E-04       4    8    1         0.6898102124E-03      0.1689677756E-02

    ------------------------------------------------
       NWT REQUIRED            6 OUTER ITERATIONS 
       AND A TOTAL OF         11 INNER ITERATIONS.
    ------------------------------------------------

 NO OUTPUT CONTROL FOR STRESS PERIOD   42   TIME STEP   17
 
 SOLVING FOR HEAD 
                                                   Max.-Head-Change                         Max.-Flux-Residual
  Residual-Control   Outer-Iter.   Inner-Iter.     Column Row Layer    Maximum-Head-Change  Column Row Layer    Maximum-Flux-Residual          L2-NORM 
          0                 1           2             1    1     1       0.2509044104E-02       1    1    1         0.1302214795E+00      0.4851207109E+00
          0                 2           2             1    1     1      -0.2440617138E-03       1    1    1        -0.1302215734E-01      0.4837173814E-01
          0                 3           2             4    7     1      -0.2311461009E-01       5    8    1        -0.1241509234E+01      0.3054618511E+01
          0                 4           2             4    7     1       0.2407423283E-01       5    6    1         0.1329087615E+01      0.3255632753E+01
          0                 5           2             4    7     1      -0.9581786205E-03       4    8    1        -0.5437444219E-01      0.1331894170E+00
          0                 6           1             4    7     1       0.1183032662E-04       4    8    1         0.6899981354E-03      0.1690136294E-02

    ------------------------------------------------
       NWT REQUIRED            6 OUTER ITERATIONS 
       AND A TOTAL OF         11 INNER ITERATIONS.
    ------------------------------------------------

 NO OUTPUT CONTROL FOR STRESS PERIOD   42   TIME STEP   18
 
 SOLVING FOR HEAD 
                                                   Max.-Head-Change                         Max.-Flux-Residual
  Residual-Control   Outer-Iter.   Inner-Iter.     Column Row Layer    Maximum-Head-Change  Column Row Layer    Maximum-Flux-Residual          L2-NORM 
          0                 1           2             1    1     1       0.2506978002E-02       1    1    1         0.1301140787E+00      0.4875917659E+00
          0                 2           2             1    1     1      -0.2438607377E-03       1    1    1        -0.1301141722E-01      0.4859962677E-01
          0                 3           2             4    7     1      -0.2311553807E-01       5    8    1        -0.1241559021E+01      0.3054743668E+01
          0                 4           2             4    7     1       0.2407514782E-01       5    6    1         0.1329138171E+01      0.3255756621E+01
          0                 5           2             4    7     1      -0.9582080356E-03       4    8    1        -0.5437611342E-01      0.1331935039E+00
          0                 6           1             4    7     1       0.1182115117E-04       4    8    1         0.6894630137E-03      0.1688824813E-02

    ------------------------------------------------
       NWT REQUIRED            6 OUTER ITERATIONS 
       AND A TOTAL OF         11 INNER ITERATIONS.
    ------------------------------------------------

 NO OUTPUT CONTROL FOR STRESS PERIOD   42   TIME STEP   19
 
 SOLVING FOR HEAD 
                                                   Max.-Head-Change                         Max.-Flux-Residual
  Residual-Control   Outer-Iter.   Inner-Iter.     Column Row Layer    Maximum-Head-Change  Column Row Layer    Maximum-Flux-Residual          L2-NORM 
          0                 1           2             1    1     1       0.2504940617E-02       1    1    1         0.1300081716E+00      0.4899504436E+00
          0                 2           2             1    1     1      -0.2436625555E-03       1    1    1        -0.1300082648E-01      0.4881744096E-01
          0                 3           2             4    7     1      -0.2311644351E-01       5    8    1        -0.1241607557E+01      0.3054865691E+01
          0                 4           2             4    7     1       0.2407603968E-01       5    6    1         0.1329187456E+01      0.3255880667E+01
          0                 5           2             4    7     1      -0.9582505356E-03       4    8    1        -0.5437852712E-01      0.1331995598E+00
          0                 6           1             4    7     1       0.1183121445E-04       4    8    1         0.6900499143E-03      0.1690264776E-02

    ------------------------------------------------
       NWT REQUIRED            6 OUTER ITERATIONS 
       AND A TOTAL OF         11 INNER ITERATIONS.
    ------------------------------------------------

 NO OUTPUT CONTROL FOR STRESS PERIOD   42   TIME STEP   20
 
 SOLVING FOR HEAD 
                                                   Max.-Head-Change                         Max.-Flux-Residual
  Residual-Control   Outer-Iter.   Inner-Iter.     Column Row Layer    Maximum-Head-Change  Column Row Layer    Maximum-Flux-Residual          L2-NORM 
          0                 1           2             1    1     1       0.2502908479E-02       1    1    1         0.1299025361E+00      0.4921944119E+00
          0                 2           2             1    1     1      -0.2434648834E-03       1    1    1        -0.1299026291E-01      0.4902439899E-01
          0                 3           2             4    7     1      -0.2311732597E-01       5    8    1        -0.1241654785E+01      0.3054984135E+01
          0                 4           2             4    7     1       0.2407690622E-01       5    6    1         0.1329235326E+01      0.3255997980E+01
          0                 5           2             4    7     1      -0.9582850242E-03       4    8    1        -0.5438048599E-01      0.1332043617E+00
          0                 6           1             4    7     1       0.1183163967E-04       4    8    1         0.6900747985E-03      0.1690326029E-02

    ------------------------------------------------
       NWT REQUIRED            6 OUTER ITERATIONS 
       AND A TOTAL OF         11 INNER ITERATIONS.
    ------------------------------------------------

 NO OUTPUT CONTROL FOR STRESS PERIOD   42   TIME STEP   21
 
 SOLVING FOR HEAD 
                                                   Max.-Head-Change                         Max.-Flux-Residual
  Residual-Control   Outer-Iter.   Inner-Iter.     Column Row Layer    Maximum-Head-Change  Column Row Layer    Maximum-Flux-Residual          L2-NORM 
          0                 1           2             1    1     1       0.2500858120E-02       4   13    1         0.1299308996E+00      0.4943001303E+00
          0                 2           2             1    1     1      -0.2432654388E-03       1    1    1        -0.1297960479E-01      0.4921783524E-01
          0                 3           2             4    7     1      -0.2311818623E-01       5    8    1        -0.1241700827E+01      0.3055099882E+01
          0                 4           2             4    7     1       0.2407775183E-01       5    6    1         0.1329282053E+01      0.3256112463E+01
          0                 5           2             4    7     1      -0.9583186805E-03       4    8    1        -0.5438239785E-01      0.1332090340E+00
          0                 6           1             4    7     1       0.1183205502E-04       4    8    1         0.6900990111E-03      0.1690378649E-02

    ------------------------------------------------
       NWT REQUIRED            6 OUTER ITERATIONS 
       AND A TOTAL OF         11 INNER ITERATIONS.
    ------------------------------------------------

 NO OUTPUT CONTROL FOR STRESS PERIOD   42   TIME STEP   22
 
 SOLVING FOR HEAD 
                                                   Max.-Head-Change                         Max.-Flux-Residual
  Residual-Control   Outer-Iter.   Inner-Iter.     Column Row Layer    Maximum-Head-Change  Column Row Layer    Maximum-Flux-Residual          L2-NORM 
          0                 1           2             1    1     1       0.2498836448E-02       4   13    1         0.1335199855E+00      0.4962731432E+00
          0                 2           2             1    1     1      -0.2430687850E-03       4   13    1        -0.1322617925E-01      0.4940287620E-01
          0                 3           2             4    7     1      -0.2311903049E-01       5    8    1        -0.1241745882E+01      0.3055212047E+01
          0                 4           2             4    7     1       0.2407857907E-01       5    6    1         0.1329327757E+01      0.3256224483E+01
          0                 5           2             4    7     1      -0.9583516059E-03       4    8    1        -0.5438426794E-01      0.1332149571E+00
          0                 6           1             4    7     1       0.1183246141E-04       4    8    1         0.6901227416E-03      0.1690453733E-02

    ------------------------------------------------
       NWT REQUIRED            6 OUTER ITERATIONS 
       AND A TOTAL OF         11 INNER ITERATIONS.
    ------------------------------------------------

 NO OUTPUT CONTROL FOR STRESS PERIOD   42   TIME STEP   23
 
 SOLVING FOR HEAD 
                                                   Max.-Head-Change                         Max.-Flux-Residual
  Residual-Control   Outer-Iter.   Inner-Iter.     Column Row Layer    Maximum-Head-Change  Column Row Layer    Maximum-Flux-Residual          L2-NORM 
          0                 1           2             1    1     1       0.2496819964E-02       4   13    1         0.1367721845E+00      0.4981040751E+00
          0                 2           2             1    1     1      -0.2428726354E-03       4   13    1        -0.1354776068E-01      0.4956805773E-01
          0                 3           2             4    7     1      -0.2311984997E-01       5    8    1        -0.1241789736E+01      0.3055322572E+01
          0                 4           2             4    7     1       0.2407938305E-01       5    6    1         0.1329372173E+01      0.3256330853E+01
          0                 5           2             4    7     1      -0.9583836048E-03       4    8    1        -0.5438608591E-01      0.1332179884E+00
          0                 6           1             4    7     1       0.1183285593E-04       4    8    1         0.6901458041E-03      0.1690497842E-02

    ------------------------------------------------
       NWT REQUIRED            6 OUTER ITERATIONS 
       AND A TOTAL OF         11 INNER ITERATIONS.
    ------------------------------------------------

 NO OUTPUT CONTROL FOR STRESS PERIOD   42   TIME STEP   24
 
 SOLVING FOR HEAD 
                                                   Max.-Head-Change                         Max.-Flux-Residual
  Residual-Control   Outer-Iter.   Inner-Iter.     Column Row Layer    Maximum-Head-Change  Column Row Layer    Maximum-Flux-Residual          L2-NORM 
          0                 1           2             1    1     1       0.2494785176E-02       4   13    1         0.1397133176E+00      0.4996653061E+00
          0                 2           2             3   13     1      -0.2835457619E-03       3   13    1        -0.1728221524E-01      0.5116332166E-01
          0                 3           2             4    7     1      -0.2312065140E-01       5    8    1        -0.1241832491E+01      0.3055414323E+01
          0                 4           2             4    7     1       0.2408016635E-01       5    6    1         0.1329415448E+01      0.3256434766E+01
          0                 5           2             4    7     1      -0.9584147814E-03       4    8    1        -0.5438785674E-01      0.1332222515E+00
          0                 6           1             4    7     1       0.1183324082E-04       4    8    1         0.6901682468E-03      0.1690547247E-02

    ------------------------------------------------
       NWT REQUIRED            6 OUTER ITERATIONS 
       AND A TOTAL OF         11 INNER ITERATIONS.
    ------------------------------------------------

 NO OUTPUT CONTROL FOR STRESS PERIOD   42   TIME STEP   25
 
 SOLVING FOR HEAD 
                                                   Max.-Head-Change                         Max.-Flux-Residual
  Residual-Control   Outer-Iter.   Inner-Iter.     Column Row Layer    Maximum-Head-Change  Column Row Layer    Maximum-Flux-Residual          L2-NORM 
          0                 1           2             1    1     1       0.2492779021E-02       4   13    1         0.1423711546E+00      0.5010536605E+00
          0                 2           2             3   13     1      -0.2734951286E-03       3   13    1        -0.1665614494E-01      0.5104545243E-01
          0                 3           2             4    7     1      -0.2312143609E-01       5    8    1        -0.1241874366E+01      0.3055521967E+01
          0                 4           2             4    7     1       0.2408093558E-01       5    6    1         0.1329457950E+01      0.3256537171E+01
          0                 5           2             4    7     1      -0.9584453978E-03       4    8    1        -0.5438959620E-01      0.1332264630E+00
          0                 6           1             4    7     1       0.1183361854E-04       4    8    1         0.6901903153E-03      0.1690606628E-02

    ------------------------------------------------
       NWT REQUIRED            6 OUTER ITERATIONS 
       AND A TOTAL OF         11 INNER ITERATIONS.
    ------------------------------------------------

 NO OUTPUT CONTROL FOR STRESS PERIOD   42   TIME STEP   26
 
 SOLVING FOR HEAD 
                                                   Max.-Head-Change                         Max.-Flux-Residual
  Residual-Control   Outer-Iter.   Inner-Iter.     Column Row Layer    Maximum-Head-Change  Column Row Layer    Maximum-Flux-Residual          L2-NORM 
          0                 1           2             4   13     1       0.2515197243E-02       4   13    1         0.1447814501E+00      0.5023492267E+00
          0                 2           2             3   13     1      -0.2640991675E-03       3   13    1        -0.1607096664E-01      0.5094126436E-01
          0                 3           2             4    7     1      -0.2312219857E-01       5    8    1        -0.1241914982E+01      0.3055626022E+01
          0                 4           2             4    7     1       0.2408167954E-01       5    6    1         0.1329499041E+01      0.3256636405E+01
          0                 5           2             4    7     1      -0.9584750080E-03       4    8    1        -0.5439127828E-01      0.1332305248E+00
          0                 6           1             4    7     1       0.1183398393E-04       4    8    1         0.6902116588E-03      0.1690656495E-02

    ------------------------------------------------
       NWT REQUIRED            6 OUTER ITERATIONS 
       AND A TOTAL OF         11 INNER ITERATIONS.
    ------------------------------------------------

 NO OUTPUT CONTROL FOR STRESS PERIOD   42   TIME STEP   27
 
 SOLVING FOR HEAD 
                                                   Max.-Head-Change                         Max.-Flux-Residual
  Residual-Control   Outer-Iter.   Inner-Iter.     Column Row Layer    Maximum-Head-Change  Column Row Layer    Maximum-Flux-Residual          L2-NORM 
          0                 1           2             4   13     1       0.2553069791E-02       4   13    1         0.1469564355E+00      0.5035402828E+00
          0                 2           2             3   13     1      -0.2554125273E-03       3   13    1        -0.1552999223E-01      0.5085004441E-01
          0                 3           2             4    7     1      -0.2312294984E-01       5    8    1        -0.1241954974E+01      0.3055728314E+01
          0                 4           2             4    7     1       0.2408241194E-01       5    6    1         0.1329539501E+01      0.3256734315E+01
          0                 5           2             4    7     1      -0.9585041588E-03       4    8    1        -0.5439293426E-01      0.1332345388E+00
          0                 6           1             4    7     1       0.1183434351E-04       4    8    1         0.6902326509E-03      0.1690707313E-02

    ------------------------------------------------
       NWT REQUIRED            6 OUTER ITERATIONS 
       AND A TOTAL OF         11 INNER ITERATIONS.
    ------------------------------------------------

 NO OUTPUT CONTROL FOR STRESS PERIOD   42   TIME STEP   28
 
 SOLVING FOR HEAD 
                                                   Max.-Head-Change                         Max.-Flux-Residual
  Residual-Control   Outer-Iter.   Inner-Iter.     Column Row Layer    Maximum-Head-Change  Column Row Layer    Maximum-Flux-Residual          L2-NORM 
          0                 1           2             4   13     1       0.2587545676E-02       4   13    1         0.1489350333E+00      0.5046423547E+00
          0                 2           2             4   13     1      -0.2494793696E-03       3   13    1        -0.1502676104E-01      0.5076885898E-01
          0                 3           2             4    7     1      -0.2312368232E-01       5    8    1        -0.1241993939E+01      0.3055828032E+01
          0                 4           2             4    7     1       0.2408312580E-01       5    6    1         0.1329578936E+01      0.3256829914E+01
          0                 5           2             4    7     1      -0.9585325711E-03       4    8    1        -0.5439454833E-01      0.1332384582E+00
          0                 6           1             4    7     1       0.1183469434E-04       4    8    1         0.6902531272E-03      0.1690760816E-02

    ------------------------------------------------
       NWT REQUIRED            6 OUTER ITERATIONS 
       AND A TOTAL OF         11 INNER ITERATIONS.
    ------------------------------------------------

 NO OUTPUT CONTROL FOR STRESS PERIOD   42   TIME STEP   29
 
 SOLVING FOR HEAD 
                                                   Max.-Head-Change                         Max.-Flux-Residual
  Residual-Control   Outer-Iter.   Inner-Iter.     Column Row Layer    Maximum-Head-Change  Column Row Layer    Maximum-Flux-Residual          L2-NORM 
          0                 1           2             4   13     1       0.2618795558E-02       4   13    1         0.1507269755E+00      0.5056479740E+00
          0                 2           2             4   13     1      -0.2524060625E-03       4   13    1        -0.1492638130E-01      0.5069530359E-01
          0                 3           2             4    7     1      -0.2312439943E-01       5    8    1        -0.1242032062E+01      0.3055924834E+01
          0                 4           2             4    7     1       0.2408382350E-01       5    6    1         0.1329617477E+01      0.3256923468E+01
          0                 5           2             4    7     1      -0.9585603402E-03       4    8    1        -0.5439612592E-01      0.1332422987E+00
          0                 6           1             4    7     1       0.1183503688E-04       4    8    1         0.6902731370E-03      0.1690807663E-02

    ------------------------------------------------
       NWT REQUIRED            6 OUTER ITERATIONS 
       AND A TOTAL OF         11 INNER ITERATIONS.
    ------------------------------------------------

 NO OUTPUT CONTROL FOR STRESS PERIOD   42   TIME STEP   30



 STREAM LISTING     PERIOD     42   STEP       30

 LAYER ROW COL. STREAM  RCH.  FLOW INTO     FLOW TO   FLOW OUT OF   OVRLND.     DIRECT     STREAM       STREAM     STREAM     STREAM   STREAMBED  STREAMBED
                SEG.NO.  NO.  STRM. RCH.    AQUIFER    STRM. RCH.    RUNOFF     PRECIP       ET          HEAD       DEPTH      WIDTH   CONDCTNC.   GRADIENT

   1    1    1     1     1    4.7249E+01  3.2762E-01   4.6921E+01  0.000E+00  0.000E+00  0.000E+00  1.09443E+03  1.381E+00  1.662E+01  7.477E-02  1.460E+00
   1    2    2     1     2    4.6921E+01  5.0759E-01   4.6413E+01  0.000E+00  0.000E+00  0.000E+00  1.08944E+03  1.379E+00  1.656E+01  1.159E-01  1.460E+00
   1    3    3     1     3    4.6413E+01  4.3309E-01   4.5980E+01  0.000E+00  0.000E+00  0.000E+00  1.08379E+03  1.376E+00  1.650E+01  9.898E-02  1.459E+00
   1    3    4     1     4    4.5980E+01  3.9899E-01   4.5581E+01  0.000E+00  0.000E+00  0.000E+00  1.07878E+03  1.373E+00  1.644E+01  9.124E-02  1.458E+00
   1    4    5     2     1    4.3581E+01  3.6514E-01   4.3216E+01  0.000E+00  0.000E+00  0.000E+00  1.07362E+03  1.681E+00  1.200E+01  7.800E-02  1.560E+00
   1    5    6     2     2    4.3216E+01  2.8042E-01   4.2936E+01  0.000E+00  0.000E+00  0.000E+00  1.06818E+03  1.674E+00  1.200E+01  6.000E-02  1.558E+00
   1    6    6     2     3    4.2936E+01  2.8003E-01   4.2656E+01  0.000E+00  0.000E+00  0.000E+00  1.06346E+03  1.667E+00  1.200E+01  6.000E-02  1.556E+00
   1    7    6     2     4    4.2656E+01  2.7964E-01   4.2376E+01  0.000E+00  0.000E+00  0.000E+00  1.05874E+03  1.661E+00  1.200E+01  6.000E-02  1.554E+00
   1    8    6     2     5    4.2376E+01  2.7924E-01   4.2097E+01  0.000E+00  0.000E+00  0.000E+00  1.05401E+03  1.654E+00  1.200E+01  6.000E-02  1.551E+00
   1    3    5     3     1    2.0000E+00  2.8252E-01   1.7175E+00  0.000E+00  0.000E+00  0.000E+00  1.07555E+03  1.909E+00  9.636E+00  7.227E-02  1.955E+00
   1    3    6     3     2    1.7175E+00  2.4905E-01   1.4684E+00  0.000E+00  0.000E+00  0.000E+00  1.07264E+03  1.727E+00  8.909E+00  6.682E-02  1.864E+00
   1    3    7     3     3    1.4684E+00  1.9718E-01   1.2712E+00  0.000E+00  0.000E+00  0.000E+00  1.06987E+03  1.555E+00  8.218E+00  5.547E-02  1.777E+00
   1    4    8     3     4    1.2712E+00  2.2567E-01   1.0456E+00  0.000E+00  0.000E+00  0.000E+00  1.06682E+03  1.364E+00  7.455E+00  6.709E-02  1.682E+00
   1    5    8     3     5    1.0456E+00  1.5790E-01   8.8768E-01  0.000E+00  0.000E+00  0.000E+00  1.06362E+03  1.164E+00  6.655E+00  4.991E-02  1.582E+00
   1    6    8     3     6    8.8768E-01  5.5980E-02   8.3170E-01  0.000E+00  0.000E+00  0.000E+00  1.06158E+03  1.036E+00  6.145E+00  1.844E-02  1.518E+00
   1    5   10     4     1    1.0000E+01  9.0919E-02   9.9091E+00  0.000E+00  0.000E+00  0.000E+00  1.07836E+03  6.368E-01  1.000E+01  2.500E-02  1.212E+00
   1    5    9     4     2    9.9091E+00  1.8158E-01   9.7275E+00  0.000E+00  0.000E+00  0.000E+00  1.07154E+03  6.315E-01  1.000E+01  5.000E-02  1.211E+00
   1    6    8     4     3    9.7275E+00  1.2689E-01   9.6006E+00  0.000E+00  0.000E+00  0.000E+00  1.06381E+03  6.256E-01  1.000E+01  3.500E-02  1.209E+00
   1    6    8     5     1    1.0432E+01  2.2686E-01   1.0205E+01  0.000E+00  0.000E+00  0.000E+00  1.05868E+03  6.790E-01  1.542E+01  6.166E-02  1.226E+00
   1    7    7     5     2    1.0205E+01  2.7894E-01   9.9265E+00  0.000E+00  0.000E+00  0.000E+00  1.05417E+03  6.732E-01  1.519E+01  7.594E-02  1.224E+00
   1    8    7     5     3    9.9265E+00  1.9221E-01   9.7343E+00  0.000E+00  0.000E+00  0.000E+00  1.04992E+03  6.676E-01  1.497E+01  5.241E-02  1.223E+00
   1    8    6     5     4    9.7343E+00  1.3577E-01   9.5985E+00  0.000E+00  0.000E+00  0.000E+00  1.04691E+03  6.637E-01  1.482E+01  3.706E-02  1.221E+00
   1    9    6     6     1    4.4239E+01  2.8298E-01   4.3956E+01  0.000E+00  0.000E+00  0.000E+00  1.04444E+03  1.716E+00  1.200E+01  6.000E-02  1.572E+00
   1   10    7     6     2    4.3956E+01  2.8259E-01   4.3674E+01  0.000E+00  0.000E+00  0.000E+00  1.03989E+03  1.710E+00  1.200E+01  6.000E-02  1.570E+00
   1   11    7     6     3    4.3674E+01  2.8219E-01   4.3392E+01  0.000E+00  0.000E+00  0.000E+00  1.03534E+03  1.703E+00  1.200E+01  6.000E-02  1.568E+00
   1   12    7     6     4    4.3392E+01  2.8179E-01   4.3110E+01  0.000E+00  0.000E+00  0.000E+00  1.03079E+03  1.697E+00  1.200E+01  6.000E-02  1.566E+00
   1   13    7     6     5    4.3110E+01  1.4463E-02   4.3095E+01  0.000E+00  0.000E+00  0.000E+00  1.02760E+03  1.693E+00  1.200E+01  2.400E-02  2.009E-01
   1   14    9     7     1    1.5000E+02  1.3490E+00   1.4865E+02  0.000E+00  0.000E+00  0.000E+00  1.03987E+03  2.288E+00  5.529E+01  5.593E-01  8.040E-01
   1   13    8     7     2    1.4865E+02  1.8682E+00   1.4678E+02  0.000E+00  0.000E+00  0.000E+00  1.03478E+03  2.279E+00  5.526E+01  6.148E-01  1.013E+00
   1   13    7     7     3    1.4678E+02  1.5022E+00   1.4528E+02  0.000E+00  0.000E+00  0.000E+00  1.02969E+03  2.270E+00  5.522E+01  5.584E-01  8.967E-01
   1   13    6     8     1    1.8838E+02  1.0189E+00   1.8736E+02  0.000E+00  0.000E+00  0.000E+00  1.02494E+03  3.065E+00  4.444E+01  4.529E-01  7.500E-01
   1   13    5     8     2    1.8736E+02  2.3183E-01   1.8713E+02  0.000E+00  0.000E+00  0.000E+00  1.01869E+03  3.061E+00  4.439E+01  4.523E-01  1.709E-01
   1   13    4     8     3    1.8713E+02 -2.3159E+00   1.8944E+02  0.000E+00  0.000E+00  0.000E+00  1.01244E+03  3.067E+00  4.448E+01  4.533E+00 -1.703E-01
   1   13    3     8     4    1.8944E+02 -3.5909E+00   1.9303E+02  0.000E+00  0.000E+00  0.000E+00  1.00621E+03  3.085E+00  4.474E+01  4.559E+00 -2.625E-01
   1   13    2     8     5    1.9303E+02 -2.5700E+00   1.9560E+02  0.000E+00  0.000E+00  0.000E+00  9.99979E+02  3.104E+00  4.501E+01  4.586E+00 -1.868E-01
   1   13    1     8     6    1.9560E+02 -2.0119E+00   1.9761E+02  0.000E+00  0.000E+00  0.000E+00  9.94993E+02  3.118E+00  4.521E+01  2.764E+00 -2.426E-01
   1    8    6     9     1    7.4560E+00  0.0000E+00   7.4560E+00  0.000E+00  0.000E+00  0.000E+00  1.08065E+03  1.900E+00  4.000E+00  0.000E+00  1.633E+00
   1    8    5     9     2    7.4560E+00  0.0000E+00   7.4560E+00  0.000E+00  0.000E+00  0.000E+00  1.08015E+03  1.900E+00  4.000E+00  0.000E+00  1.633E+00





UNSATURATED ZONE PACKAGE VOLUMETRIC BUDGET FOR  TIME STEP    30 STRESS PERIOD   42
  ------------------------------------------------------------------------------



     CUMULATIVE VOLUMES      L**3       RATES FOR THIS TIME STEP      L**3/T
     ------------------                 ------------------------

           IN:                                      IN:
           ---                                      ---
        INFILTRATION =  1456160542.7884          INFILTRATION =           8.3036

          OUT:                                     OUT:
          ----                                     ----
              UZF ET =  1316384776.4678                UZF ET =           8.3175
        UZF RECHARGE =       73224.0000          UZF RECHARGE =       0.0000E+00

            IN - OUT =   139702542.3206              IN - OUT =      -1.3867E-02

          STORAGE:                                 STORAGE:
          --------                                 --------
      STORAGE CHANGE =   139703902.3347        STORAGE CHANGE =      -1.3867E-02

 PERCENT DISCREPANCY IS DIFFERENCE BETWEEN IN-OUT MINUS CHANGE IN STORAGE
 DIVIDED BY THE AVERAGE OF IN AND OUT TIMES 100

 PERCENT DISCREPANCY =          -0.00     PERCENT DISCREPANCY =           0.00






1
  VOLUMETRIC BUDGET FOR AGRICULTURAL FIELDS AT  END OF TIME STEP   30, STRESS PERIOD  42
  ------------------------------------------------------------------------------

     CUMULATIVE VOLUMES      L**3       RATES FOR THIS TIME STEP      L**3/T
     ------------------                 ------------------------

           IN:                                      IN:
           ---                                      ---
               AG WELLS  =   381194528.0000                 AG WELLS  =           0.0000
      DIVERSION SEGMENTS =   983563712.0000        DIVERSION SEGMENTS =           7.4560
       IRRIGATION PONDS  =           0.0000         IRRIGATION PONDS  =           0.0000
           GW IRRIGATION =           0.0000             GW IRRIGATION =           0.0000
           SW IRRIGATION =           0.0000             SW IRRIGATION =           0.0000
        SYSTEM LOSSES GW =           0.0000          SYSTEM LOSSES GW =           0.0000
        SYSTEM LOSSES SW =           0.0000          SYSTEM LOSSES SW =           0.0000

                TOTAL IN =  1364758272.0000                  TOTAL IN =           7.4560

          OUT:                                     OUT:
          ----                                     ----
               AG WELLS  =           0.0000                 AG WELLS  =           0.0000
      DIVERSION SEGMENTS =           0.0000        DIVERSION SEGMENTS =           0.0000
       IRRIGATION PONDS  =           0.0000         IRRIGATION PONDS  =           0.0000
           GW IRRIGATION =   381194528.0000             GW IRRIGATION =           0.0000
           SW IRRIGATION =   983583936.0000             SW IRRIGATION =           7.4561
        SYSTEM LOSSES GW =           0.0000          SYSTEM LOSSES GW =           0.0000
        SYSTEM LOSSES SW =           0.0000          SYSTEM LOSSES SW =           0.0000

               TOTAL OUT =  1364778496.0000                 TOTAL OUT =           7.4561

                IN - OUT =      -20224.0000                  IN - OUT =      -1.4877E-04

     PERCENT DISCREPANCY =          -0.00         PERCENT DISCREPANCY =          -0.00



1
  VOLUMETRIC BUDGET FOR ENTIRE MODEL AT END OF TIME STEP   30, STRESS PERIOD  42
  ------------------------------------------------------------------------------

     CUMULATIVE VOLUMES      L**3       RATES FOR THIS TIME STEP      L**3/T
     ------------------                 ------------------------

           IN:                                      IN:
           ---                                      ---
             STORAGE     =   678419584.0000               STORAGE     =           0.6594
       CONSTANT HEAD     =           0.0000         CONSTANT HEAD     =           0.0000
     HEAD DEP BOUNDS     =    30858236.0000       HEAD DEP BOUNDS     =           0.2867
      STREAM LEAKAGE     =  1297724032.0000        STREAM LEAKAGE     =          12.6673
        UZF RECHARGE     =       73223.9531          UZF RECHARGE     =           0.0000
               GW ET     =           0.0000                 GW ET     =           0.0000
     SURFACE LEAKAGE     =           0.0000       SURFACE LEAKAGE     =           0.0000
           AG WELLS      =           0.0000             AG WELLS      =           0.0000

                TOTAL IN =  2007075072.0000                  TOTAL IN =          13.6134

          OUT:                                     OUT:
          ----                                     ----
             STORAGE     =   438675264.0000               STORAGE     =           2.8312
       CONSTANT HEAD     =           0.0000         CONSTANT HEAD     =           0.0000
     HEAD DEP BOUNDS     =    31387392.0000       HEAD DEP BOUNDS     =           0.2934
      STREAM LEAKAGE     =  1152484480.0000        STREAM LEAKAGE     =          10.4887
        UZF RECHARGE     =           0.0000          UZF RECHARGE     =           0.0000
               GW ET     =     3343843.5000                 GW ET     =           0.0000
     SURFACE LEAKAGE     =           0.0000       SURFACE LEAKAGE     =           0.0000
           AG WELLS      =   381194528.0000             AG WELLS      =           0.0000

               TOTAL OUT =  2007085568.0000                 TOTAL OUT =          13.6133

                IN - OUT =      -10496.0000                  IN - OUT =       6.4850E-05

     PERCENT DISCREPANCY =          -0.00         PERCENT DISCREPANCY =           0.00






         TIME SUMMARY AT END OF TIME STEP   30 IN STRESS PERIOD   42
                    SECONDS     MINUTES      HOURS       DAYS        YEARS
                    -----------------------------------------------------------
   TIME STEP LENGTH  87667.      1461.1      24.352      1.0147     2.77799E-03
 STRESS PERIOD TIME 2.63000E+06  43833.      730.56      30.440     8.33397E-02
         TOTAL TIME 1.07916E+08 1.79859E+06  29977.      1249.0      3.4196    
1
1
                            STRESS PERIOD NO.   43, LENGTH =   2630000.    
                            -----------------------------------------------

                              NUMBER OF TIME STEPS =    30

                               MULTIPLIER FOR DELT =     1.000

                            INITIAL TIME STEP SIZE =   87666.66    

 REUSING NON-PARAMETER GHB CELLS FROM LAST STRESS PERIOD

      2 GHB CELLS

 REUSING STREAM SEGMENT DATA FROM LAST STRESS PERIOD



            AREAL INFILTRATION RATE
 READING ON UNIT   19 WITH FORMAT: (FREE)              

            1           2           3           4           5           6           7           8           9          10
 ........................................................................................................................
   1   1.0000E-10  2.0000E-10   0.000       0.000       0.000       0.000       0.000       0.000       0.000       0.000    
   2   2.0000E-10  1.0000E-10  2.0000E-10   0.000       0.000      8.0000E-10  8.0000E-10  5.0000E-10   0.000       0.000    
   3    0.000      5.0000E-10  1.0000E-10  1.0000E-10  8.0000E-10  8.0000E-10  5.0000E-10  5.0000E-10   0.000       0.000    
   4   8.0000E-10  5.0000E-10  1.0000E-10  1.0000E-10  1.0000E-10  1.0000E-10  1.0000E-10  1.0000E-10  2.0000E-10   0.000    
   5   8.0000E-10  5.0000E-10  1.0000E-10  1.0000E-10  1.0000E-10  1.0000E-10  1.0000E-10  1.0000E-10  1.0000E-10  1.0000E-10
   6   8.0000E-10  5.0000E-10  5.0000E-10  2.0000E-10  2.0000E-10  1.0000E-10  1.0000E-10  1.0000E-10  1.0000E-10  5.0000E-10
   7   8.0000E-10  5.0000E-10  5.0000E-10  2.0000E-10  2.0000E-10  1.0000E-10  1.0000E-10  2.0000E-10  2.0000E-10   0.000    
   8    0.000      5.0000E-10  5.0000E-10  2.0000E-10  2.0000E-10  1.0000E-10  1.0000E-10  2.0000E-10  5.0000E-10   0.000    
   9    0.000      5.0000E-10  5.0000E-10  2.0000E-10  2.0000E-10  1.0000E-10  1.0000E-10  2.0000E-10  5.0000E-10   0.000    
  10    0.000      5.0000E-10  5.0000E-10  2.0000E-10  2.0000E-10  1.0000E-10  1.0000E-10  2.0000E-10  5.0000E-10  8.0000E-10
  11    0.000      1.0000E-10  1.0000E-10  1.0000E-10  1.0000E-10  1.0000E-10  1.0000E-10  2.0000E-10  5.0000E-10   0.000    
  12   1.0000E-10  1.0000E-10  1.0000E-10  1.0000E-10  1.0000E-10  1.0000E-10  1.0000E-10  1.0000E-10  2.0000E-10   0.000    
  13   1.0000E-10  1.0000E-10  2.0000E-10  2.0000E-10  2.0000E-10  2.0000E-10  2.0000E-10  1.0000E-10  1.0000E-10   0.000    
  14    0.000      2.0000E-10  5.0000E-10  5.0000E-10  5.0000E-10  5.0000E-10  5.0000E-10  2.0000E-10  1.0000E-10   0.000    
  15    0.000       0.000      8.0000E-10  8.0000E-10  8.0000E-10  8.0000E-10   0.000       0.000       0.000       0.000    

                  ET RATE =  1.500000E-07

 USING ET EXTINCTION DEPTH FROM PREVIOUS STRESS PERIOD. CURRENT PERIOD IS:      43

 USING EXTINCTION WATER CONTENT FROM PREVIOUS STRESS PERIOD. CURRENT PERIOD IS:      43

 USING AIR ENTRY PRESSURE FROM PREVIOUS STRESS PERIOD. CURRENT PERIOD IS:      43

 USING ROOT PRESSURE HEAD FROM PREVIOUS STRESS PERIOD. CURRENT PERIOD IS:      43

 USING ROOT ACTIVITY FROM PREVIOUS STRESS PERIOD. CURRENT PERIOD IS:      43

 PROCESSING AG STRESS PERIOD DATA

 READING AG STRESS PERIOD DATA

 READING IRRIGATION SEGMENT

 READING IRRIGATION WELL

 READING SUPPLEMENTAL WELL

 NO IRRPOND OR REUSING IRRPOND DATA FROM LAST STRESS PERIOD

 END PROCESSING AG STRESS PERIOD DATA OPTIONS
 
 SOLVING FOR HEAD 
                                                   Max.-Head-Change                         Max.-Flux-Residual
  Residual-Control   Outer-Iter.   Inner-Iter.     Column Row Layer    Maximum-Head-Change  Column Row Layer    Maximum-Flux-Residual          L2-NORM 
          0                 1           2             4   13     1      -0.6168703351E-02       4   13    1        -0.3535877382E+00      0.7679046158E+00
          0                 2           2             4    7     1      -0.4265541895E-01       4    7    1        -0.2290862803E+01      0.5627622397E+01
          0                 3           2             4    7     1       0.4420929714E-01       4    7    1         0.2440709068E+01      0.5978683620E+01
          0                 4           2             4    7     1      -0.1759161711E-02       4    8    1        -0.9982829797E-01      0.2445808003E+00
          0                 5           1             4    7     1       0.2169117360E-04       4    8    1         0.1265123395E-02      0.3116764912E-02

    ------------------------------------------------
       NWT REQUIRED            5 OUTER ITERATIONS 
       AND A TOTAL OF          9 INNER ITERATIONS.
    ------------------------------------------------

 NO OUTPUT CONTROL FOR STRESS PERIOD   43   TIME STEP    1
 
 SOLVING FOR HEAD 
                                                   Max.-Head-Change                         Max.-Flux-Residual
  Residual-Control   Outer-Iter.   Inner-Iter.     Column Row Layer    Maximum-Head-Change  Column Row Layer    Maximum-Flux-Residual          L2-NORM 
          0                 1           2             7   13     1       0.2842703503E-02       7   13    1         0.1537504112E+00      0.4943108593E+00
          0                 2           2             7   13     1      -0.2948852495E-02       7   13    1        -0.1636389729E+00      0.1696873842E+00
          0                 3           2             7   13     1       0.2007498194E-03       7   13    1         0.1145160391E-01      0.1186917074E-01
          0                 4           1             7   13     1      -0.7984875966E-05       7   13    1        -0.4681905566E-03      0.4850346476E-03

    ------------------------------------------------
       NWT REQUIRED            4 OUTER ITERATIONS 
       AND A TOTAL OF          7 INNER ITERATIONS.
    ------------------------------------------------

 NO OUTPUT CONTROL FOR STRESS PERIOD   43   TIME STEP    2
 
 SOLVING FOR HEAD 
                                                   Max.-Head-Change                         Max.-Flux-Residual
  Residual-Control   Outer-Iter.   Inner-Iter.     Column Row Layer    Maximum-Head-Change  Column Row Layer    Maximum-Flux-Residual          L2-NORM 
          0                 1           2             1    1     1       0.2248613618E-02       4   13    1         0.1187181843E+00      0.4644423119E+00
          0                 2           2             4    7     1      -0.6992527285E-01       4    7    1        -0.3755437456E+01      0.9238965173E+01
          0                 3           2             4    7     1       0.7259590837E-01       4    7    1         0.4007875902E+01      0.9817282752E+01
          0                 4           2             4    7     1      -0.2888746541E-02       4    8    1        -0.1639347746E+00      0.4015430390E+00
          0                 5           1             4    7     1       0.3561935480E-04       4    8    1         0.2077535052E-02      0.5088777564E-02

    ------------------------------------------------
       NWT REQUIRED            5 OUTER ITERATIONS 
       AND A TOTAL OF          9 INNER ITERATIONS.
    ------------------------------------------------

 NO OUTPUT CONTROL FOR STRESS PERIOD   43   TIME STEP    3
 
 SOLVING FOR HEAD 
                                                   Max.-Head-Change                         Max.-Flux-Residual
  Residual-Control   Outer-Iter.   Inner-Iter.     Column Row Layer    Maximum-Head-Change  Column Row Layer    Maximum-Flux-Residual          L2-NORM 
          0                 1           2             4   13     1       0.2690827097E-02       4   13    1         0.1551913169E+00      0.4873575526E+00
          0                 2           2             4   13     1      -0.2592747792E-03       4   13    1        -0.1537524779E-01      0.4844022073E-01
          0                 3           2             4    7     1      -0.6971680483E-01       5    8    1        -0.3744333499E+01      0.9212198637E+01
          0                 4           2             4    7     1       0.7258220364E-01       5    6    1         0.4007093915E+01      0.9815489591E+01
          0                 5           2             4    7     1      -0.2888886062E-02       4    8    1        -0.1639436535E+00      0.4015646932E+00
          0                 6           1             4    7     1       0.3564752091E-04       4    8    1         0.2079190091E-02      0.5092789377E-02

    ------------------------------------------------
       NWT REQUIRED            6 OUTER ITERATIONS 
       AND A TOTAL OF         11 INNER ITERATIONS.
    ------------------------------------------------

 NO OUTPUT CONTROL FOR STRESS PERIOD   43   TIME STEP    4
 
 SOLVING FOR HEAD 
                                                   Max.-Head-Change                         Max.-Flux-Residual
  Residual-Control   Outer-Iter.   Inner-Iter.     Column Row Layer    Maximum-Head-Change  Column Row Layer    Maximum-Flux-Residual          L2-NORM 
          0                 1           2             4   13     1       0.3260808846E-02       4   13    1         0.1881056190E+00      0.5126023840E+00
          0                 2           2             4   13     1      -0.3142006376E-03       4   13    1        -0.1863650460E-01      0.5084160710E-01
          0                 3           2             4    7     1      -0.6971684981E-01       5    8    1        -0.3744336224E+01      0.9212324045E+01
          0                 4           2             4    7     1       0.7258220350E-01       5    6    1         0.4007094083E+01      0.9815490468E+01
          0                 5           2             4    7     1      -0.2888886057E-02       4    8    1        -0.1639436601E+00      0.4015647377E+00
          0                 6           1             4    7     1       0.3564752113E-04       4    8    1         0.2079190177E-02      0.5092789874E-02

    ------------------------------------------------
       NWT REQUIRED            6 OUTER ITERATIONS 
       AND A TOTAL OF         11 INNER ITERATIONS.
    ------------------------------------------------

 NO OUTPUT CONTROL FOR STRESS PERIOD   43   TIME STEP    5
 
 SOLVING FOR HEAD 
                                                   Max.-Head-Change                         Max.-Flux-Residual
  Residual-Control   Outer-Iter.   Inner-Iter.     Column Row Layer    Maximum-Head-Change  Column Row Layer    Maximum-Flux-Residual          L2-NORM 
          0                 1           2             4   13     1       0.3775725923E-02       4   13    1         0.2178291607E+00      0.5388043549E+00
          0                 2           2             4   13     1      -0.3638005505E-03       4   13    1        -0.2158045336E-01      0.5333663766E-01
          0                 3           2             4    7     1      -0.6971689454E-01       5    8    1        -0.3744338866E+01      0.9212441667E+01
          0                 4           2             4    7     1       0.7258220336E-01       5    6    1         0.4007094248E+01      0.9815491390E+01
          0                 5           2             4    7     1      -0.2888886051E-02       4    8    1        -0.1639436667E+00      0.4015647682E+00
          0                 6           1             4    7     1       0.3564752091E-04       4    8    1         0.2079190267E-02      0.5092787809E-02

    ------------------------------------------------
       NWT REQUIRED            6 OUTER ITERATIONS 
       AND A TOTAL OF         11 INNER ITERATIONS.
    ------------------------------------------------

 NO OUTPUT CONTROL FOR STRESS PERIOD   43   TIME STEP    6
 
 SOLVING FOR HEAD 
                                                   Max.-Head-Change                         Max.-Flux-Residual
  Residual-Control   Outer-Iter.   Inner-Iter.     Column Row Layer    Maximum-Head-Change  Column Row Layer    Maximum-Flux-Residual          L2-NORM 
          0                 1           2             4   13     1       0.4241002690E-02       4   13    1         0.2446771562E+00      0.5650426137E+00
          0                 2           2             4   13     1      -0.4086314817E-03       4   13    1        -0.2424031668E-01      0.5584110328E-01
          0                 3           2             4    7     1      -0.6971693011E-01       5    8    1        -0.3744341060E+01      0.9212548988E+01
          0                 4           2             4    7     1       0.7258219397E-01       5    6    1         0.4007093899E+01      0.9815490950E+01
          0                 5           2             4    7     1      -0.2888885677E-02       4    8    1        -0.1639436524E+00      0.4015647233E+00
          0                 6           1             4    7     1       0.3564751621E-04       4    8    1         0.2079190090E-02      0.5092782983E-02

    ------------------------------------------------
       NWT REQUIRED            6 OUTER ITERATIONS 
       AND A TOTAL OF         11 INNER ITERATIONS.
    ------------------------------------------------

 NO OUTPUT CONTROL FOR STRESS PERIOD   43   TIME STEP    7
 
 SOLVING FOR HEAD 
                                                   Max.-Head-Change                         Max.-Flux-Residual
  Residual-Control   Outer-Iter.   Inner-Iter.     Column Row Layer    Maximum-Head-Change  Column Row Layer    Maximum-Flux-Residual          L2-NORM 
          0                 1           2             4   13     1       0.4661619818E-02       4   13    1         0.2689387508E+00      0.5907024621E+00
          0                 2           2             4   13     1      -0.4491309556E-03       4   13    1        -0.2664228141E-01      0.5828987055E-01
          0                 3           2             4    7     1      -0.6971697609E-01       5    8    1        -0.3744343696E+01      0.9212650102E+01
          0                 4           2             4    7     1       0.7258219390E-01       5    6    1         0.4007094065E+01      0.9815491780E+01
          0                 5           2             4    7     1      -0.2888885674E-02       4    8    1        -0.1639436590E+00      0.4015647872E+00
          0                 6           1             4    7     1       0.3564751598E-04       4    8    1         0.2079190172E-02      0.5092793409E-02

    ------------------------------------------------
       NWT REQUIRED            6 OUTER ITERATIONS 
       AND A TOTAL OF         11 INNER ITERATIONS.
    ------------------------------------------------

 NO OUTPUT CONTROL FOR STRESS PERIOD   43   TIME STEP    8
 
 SOLVING FOR HEAD 
                                                   Max.-Head-Change                         Max.-Flux-Residual
  Residual-Control   Outer-Iter.   Inner-Iter.     Column Row Layer    Maximum-Head-Change  Column Row Layer    Maximum-Flux-Residual          L2-NORM 
          0                 1           2             4   13     1       0.5042038027E-02       4   13    1         0.2908729592E+00      0.6154351862E+00
          0                 2           2             4   13     1      -0.4857927959E-03       4   13    1        -0.2881576413E-01      0.6065534668E-01
          0                 3           2             4    7     1      -0.6971701991E-01       5    8    1        -0.3744346295E+01      0.9212743713E+01
          0                 4           2             4    7     1       0.7258219373E-01       5    6    1         0.4007094219E+01      0.9815492544E+01
          0                 5           2             4    7     1      -0.2888885668E-02       4    8    1        -0.1639436654E+00      0.4015648063E+00
          0                 6           1             4    7     1       0.3564751576E-04       4    8    1         0.2079190239E-02      0.5092788215E-02

    ------------------------------------------------
       NWT REQUIRED            6 OUTER ITERATIONS 
       AND A TOTAL OF         11 INNER ITERATIONS.
    ------------------------------------------------

 NO OUTPUT CONTROL FOR STRESS PERIOD   43   TIME STEP    9
 
 SOLVING FOR HEAD 
                                                   Max.-Head-Change                         Max.-Flux-Residual
  Residual-Control   Outer-Iter.   Inner-Iter.     Column Row Layer    Maximum-Head-Change  Column Row Layer    Maximum-Flux-Residual          L2-NORM 
          0                 1           2             4   13     1       0.5386279761E-02       4   13    1         0.3107133507E+00      0.6390187367E+00
          0                 2           2             4   13     1      -0.5189466359E-03       4   13    1        -0.3078049473E-01      0.6291180752E-01
          0                 3           2             4    7     1      -0.6971705898E-01       5    8    1        -0.3744348672E+01      0.9212830125E+01
          0                 4           2             4    7     1       0.7258218894E-01       5    6    1         0.4007094115E+01      0.9815492646E+01
          0                 5           2             4    7     1      -0.2888885477E-02       4    8    1        -0.1639436615E+00      0.4015648128E+00
          0                 6           1             4    7     1       0.3564751374E-04       4    8    1         0.2079190214E-02      0.5092792505E-02

    ------------------------------------------------
       NWT REQUIRED            6 OUTER ITERATIONS 
       AND A TOTAL OF         11 INNER ITERATIONS.
    ------------------------------------------------

 NO OUTPUT CONTROL FOR STRESS PERIOD   43   TIME STEP   10
 
 SOLVING FOR HEAD 
                                                   Max.-Head-Change                         Max.-Flux-Residual
  Residual-Control   Outer-Iter.   Inner-Iter.     Column Row Layer    Maximum-Head-Change  Column Row Layer    Maximum-Flux-Residual          L2-NORM 
          0                 1           2             4   13     1       0.5697768423E-02       4   13    1         0.3286584799E+00      0.6613233124E+00
          0                 2           2             4   13     1      -0.5489490628E-03       4   13    1        -0.3255772010E-01      0.6504694794E-01
          0                 3           2             4    7     1      -0.6971710406E-01       5    8    1        -0.3744351187E+01      0.9212911335E+01
          0                 4           2             4    7     1       0.7258218885E-01       5    6    1         0.4007094271E+01      0.9815493360E+01
          0                 5           2             4    7     1      -0.2888885474E-02       4    8    1        -0.1639436682E+00      0.4015648346E+00
          0                 6           1             4    7     1       0.3564751352E-04       4    8    1         0.2079190286E-02      0.5092789679E-02

    ------------------------------------------------
       NWT REQUIRED            6 OUTER ITERATIONS 
       AND A TOTAL OF         11 INNER ITERATIONS.
    ------------------------------------------------

 NO OUTPUT CONTROL FOR STRESS PERIOD   43   TIME STEP   11
 
 SOLVING FOR HEAD 
                                                   Max.-Head-Change                         Max.-Flux-Residual
  Residual-Control   Outer-Iter.   Inner-Iter.     Column Row Layer    Maximum-Head-Change  Column Row Layer    Maximum-Flux-Residual          L2-NORM 
          0                 1           2             4   13     1       0.5979916236E-02       4   13    1         0.3449063560E+00      0.6823290141E+00
          0                 2           2             4   13     1      -0.5761251238E-03       4   13    1        -0.3416683647E-01      0.6705852903E-01
          0                 3           2             4    7     1      -0.6971714697E-01       5    8    1        -0.3744353662E+01      0.9212986865E+01
          0                 4           2             4    7     1       0.7258218867E-01       5    6    1         0.4007094416E+01      0.9815494047E+01
          0                 5           2             4    7     1      -0.2888885467E-02       4    8    1        -0.1639436746E+00      0.4015648654E+00
          0                 6           1             4    7     1       0.3564751374E-04       4    8    1         0.2079190381E-02      0.5092790718E-02

    ------------------------------------------------
       NWT REQUIRED            6 OUTER ITERATIONS 
       AND A TOTAL OF         11 INNER ITERATIONS.
    ------------------------------------------------

 NO OUTPUT CONTROL FOR STRESS PERIOD   43   TIME STEP   12
 
 SOLVING FOR HEAD 
                                                   Max.-Head-Change                         Max.-Flux-Residual
  Residual-Control   Outer-Iter.   Inner-Iter.     Column Row Layer    Maximum-Head-Change  Column Row Layer    Maximum-Flux-Residual          L2-NORM 
          0                 1           2             4   13     1       0.6235617805E-02       4   13    1         0.3596248920E+00      0.7020109430E+00
          0                 2           2             4   13     1      -0.6007491992E-03       4   13    1        -0.3562421268E-01      0.6894387881E-01
          0                 3           2             4    7     1      -0.6971718697E-01       5    8    1        -0.3744355912E+01      0.9213056634E+01
          0                 4           2             4    7     1       0.7258218395E-01       5    6    1         0.4007094311E+01      0.9815494874E+01
          0                 5           2             4    7     1      -0.2888885279E-02       4    8    1        -0.1639436706E+00      0.4015649044E+00
          0                 6           1             4    7     1       0.3564751128E-04       4    8    1         0.2079190317E-02      0.5092788214E-02

    ------------------------------------------------
       NWT REQUIRED            6 OUTER ITERATIONS 
       AND A TOTAL OF         11 INNER ITERATIONS.
    ------------------------------------------------

 NO OUTPUT CONTROL FOR STRESS PERIOD   43   TIME STEP   13
 
 SOLVING FOR HEAD 
                                                   Max.-Head-Change                         Max.-Flux-Residual
  Residual-Control   Outer-Iter.   Inner-Iter.     Column Row Layer    Maximum-Head-Change  Column Row Layer    Maximum-Flux-Residual          L2-NORM 
          0                 1           2             4   13     1       0.6467230579E-02       4   13    1         0.3729508207E+00      0.7204052506E+00
          0                 2           2             4   13     1      -0.6230438684E-03       4   13    1        -0.3694310884E-01      0.7070694977E-01
          0                 3           2             4    7     1      -0.6971723103E-01       5    8    1        -0.3744358354E+01      0.9213122208E+01
          0                 4           2             4    7     1       0.7258218384E-01       5    6    1         0.4007094450E+01      0.9815495506E+01
          0                 5           2             4    7     1      -0.2888885274E-02       4    8    1        -0.1639436770E+00      0.4015649240E+00
          0                 6           1             4    7     1       0.3564751105E-04       4    8    1         0.2079190405E-02      0.5092791897E-02

    ------------------------------------------------
       NWT REQUIRED            6 OUTER ITERATIONS 
       AND A TOTAL OF         11 INNER ITERATIONS.
    ------------------------------------------------

 NO OUTPUT CONTROL FOR STRESS PERIOD   43   TIME STEP   14
 
 SOLVING FOR HEAD 
                                                   Max.-Head-Change                         Max.-Flux-Residual
  Residual-Control   Outer-Iter.   Inner-Iter.     Column Row Layer    Maximum-Head-Change  Column Row Layer    Maximum-Flux-Residual          L2-NORM 
          0                 1           2             4   13     1       0.6677445189E-02       4   13    1         0.3850401843E+00      0.7375671180E+00
          0                 2           2             4   13     1      -0.6432872964E-03       4   13    1        -0.3814012182E-01      0.7235255615E-01
          0                 3           2             4    7     1      -0.6971727292E-01       5    8    1        -0.3744360696E+01      0.9213183357E+01
          0                 4           2             4    7     1       0.7258218363E-01       5    6    1         0.4007094596E+01      0.9815496122E+01
          0                 5           2             4    7     1      -0.2888885266E-02       4    8    1        -0.1639436835E+00      0.4015649515E+00
          0                 6           1             4    7     1       0.3564751150E-04       4    8    1         0.2079190477E-02      0.5092788091E-02

    ------------------------------------------------
       NWT REQUIRED            6 OUTER ITERATIONS 
       AND A TOTAL OF         11 INNER ITERATIONS.
    ------------------------------------------------

 NO OUTPUT CONTROL FOR STRESS PERIOD   43   TIME STEP   15
 
 SOLVING FOR HEAD 
                                                   Max.-Head-Change                         Max.-Flux-Residual
  Residual-Control   Outer-Iter.   Inner-Iter.     Column Row Layer    Maximum-Head-Change  Column Row Layer    Maximum-Flux-Residual          L2-NORM 
          0                 1           2             4   13     1       0.6868077119E-02       4   13    1         0.3959981110E+00      0.7535409063E+00
          0                 2           2             4   13     1      -0.6616412576E-03       4   13    1        -0.3922490017E-01      0.7388325127E-01
          0                 3           2             4    7     1      -0.6971731634E-01       5    8    1        -0.3744363051E+01      0.9213240555E+01
          0                 4           2             4    7     1       0.7258218350E-01       5    6    1         0.4007094730E+01      0.9815496714E+01
          0                 5           2             4    7     1      -0.2888885261E-02       4    8    1        -0.1639436898E+00      0.4015649727E+00
          0                 6           1             4    7     1       0.3564751128E-04       4    8    1         0.2079190571E-02      0.5092793838E-02

    ------------------------------------------------
       NWT REQUIRED            6 OUTER ITERATIONS 
       AND A TOTAL OF         11 INNER ITERATIONS.
    ------------------------------------------------

 NO OUTPUT CONTROL FOR STRESS PERIOD   43   TIME STEP   16
 
 SOLVING FOR HEAD 
                                                   Max.-Head-Change                         Max.-Flux-Residual
  Residual-Control   Outer-Iter.   Inner-Iter.     Column Row Layer    Maximum-Head-Change  Column Row Layer    Maximum-Flux-Residual          L2-NORM 
          0                 1           2             4   13     1       0.7041157958E-02       4   13    1         0.4059423981E+00      0.7683870104E+00
          0                 2           2             4   13     1      -0.6782982185E-03       4   13    1        -0.4020889656E-01      0.7530608247E-01
          0                 3           2             4    7     1      -0.6971735055E-01       5    8    1        -0.3744364885E+01      0.9213292870E+01
          0                 4           2             4    7     1       0.7258217412E-01       5    6    1         0.4007094359E+01      0.9815496040E+01
          0                 5           2             4    7     1      -0.2888884887E-02       4    8    1        -0.1639436754E+00      0.4015649401E+00
          0                 6           1             4    7     1       0.3564750657E-04       4    8    1         0.2079190368E-02      0.5092793015E-02

    ------------------------------------------------
       NWT REQUIRED            6 OUTER ITERATIONS 
       AND A TOTAL OF         11 INNER ITERATIONS.
    ------------------------------------------------

 NO OUTPUT CONTROL FOR STRESS PERIOD   43   TIME STEP   17
 
 SOLVING FOR HEAD 
                                                   Max.-Head-Change                         Max.-Flux-Residual
  Residual-Control   Outer-Iter.   Inner-Iter.     Column Row Layer    Maximum-Head-Change  Column Row Layer    Maximum-Flux-Residual          L2-NORM 
          0                 1           2             4   13     1       0.7198331198E-02       4   13    1         0.4149682081E+00      0.7821836289E+00
          0                 2           2             4   13     1      -0.6934340425E-03       4   13    1        -0.4110257343E-01      0.7663021955E-01
          0                 3           2             4    7     1      -0.6971739327E-01       5    8    1        -0.3744367151E+01      0.9213342759E+01
          0                 4           2             4    7     1       0.7258217398E-01       5    6    1         0.4007094497E+01      0.9815496603E+01
          0                 5           2             4    7     1      -0.2888884882E-02       4    8    1        -0.1639436817E+00      0.4015649702E+00
          0                 6           1             4    7     1       0.3564750635E-04       4    8    1         0.2079190458E-02      0.5092789659E-02

    ------------------------------------------------
       NWT REQUIRED            6 OUTER ITERATIONS 
       AND A TOTAL OF         11 INNER ITERATIONS.
    ------------------------------------------------

 NO OUTPUT CONTROL FOR STRESS PERIOD   43   TIME STEP   18
 
 SOLVING FOR HEAD 
                                                   Max.-Head-Change                         Max.-Flux-Residual
  Residual-Control   Outer-Iter.   Inner-Iter.     Column Row Layer    Maximum-Head-Change  Column Row Layer    Maximum-Flux-Residual          L2-NORM 
          0                 1           2             4   13     1       0.7341224419E-02       4   13    1         0.4231698710E+00      0.7949897342E+00
          0                 2           2             4   13     1      -0.7071873520E-03       4   13    1        -0.4191419362E-01      0.7785944028E-01
          0                 3           2             4    7     1      -0.6971743388E-01       5    8    1        -0.3744369376E+01      0.9213389328E+01
          0                 4           2             4    7     1       0.7258217374E-01       5    6    1         0.4007094632E+01      0.9815497106E+01
          0                 5           2             4    7     1      -0.2888884872E-02       4    8    1        -0.1639436881E+00      0.4015649818E+00
          0                 6           1             4    7     1       0.3564750635E-04       4    8    1         0.2079190551E-02      0.5092791952E-02

    ------------------------------------------------
       NWT REQUIRED            6 OUTER ITERATIONS 
       AND A TOTAL OF         11 INNER ITERATIONS.
    ------------------------------------------------

 NO OUTPUT CONTROL FOR STRESS PERIOD   43   TIME STEP   19
 
 SOLVING FOR HEAD 
                                                   Max.-Head-Change                         Max.-Flux-Residual
  Residual-Control   Outer-Iter.   Inner-Iter.     Column Row Layer    Maximum-Head-Change  Column Row Layer    Maximum-Flux-Residual          L2-NORM 
          0                 1           2             4   13     1       0.7471042848E-02       4   13    1         0.4306170327E+00      0.8068689815E+00
          0                 2           2             4   13     1      -0.7196705161E-03       4   13    1        -0.4265051730E-01      0.7899590314E-01
          0                 3           2             4    7     1      -0.6971747160E-01       5    8    1        -0.3744371324E+01      0.9213432763E+01
          0                 4           2             4    7     1       0.7258216896E-01       5    6    1         0.4007094501E+01      0.9815497016E+01
          0                 5           2             4    7     1      -0.2888884682E-02       4    8    1        -0.1639436839E+00      0.4015649763E+00
          0                 6           1             4    7     1       0.3564750411E-04       4    8    1         0.2079190504E-02      0.5092792359E-02

    ------------------------------------------------
       NWT REQUIRED            6 OUTER ITERATIONS 
       AND A TOTAL OF         11 INNER ITERATIONS.
    ------------------------------------------------

 NO OUTPUT CONTROL FOR STRESS PERIOD   43   TIME STEP   20
 
 SOLVING FOR HEAD 
                                                   Max.-Head-Change                         Max.-Flux-Residual
  Residual-Control   Outer-Iter.   Inner-Iter.     Column Row Layer    Maximum-Head-Change  Column Row Layer    Maximum-Flux-Residual          L2-NORM 
          0                 1           2             4   13     1       0.7589291865E-02       4   13    1         0.4373969927E+00      0.8178902180E+00
          0                 2           2             4   13     1      -0.7310630283E-03       4   13    1        -0.4332212902E-01      0.8005344881E-01
          0                 3           2             4    7     1      -0.6971751339E-01       5    8    1        -0.3744373468E+01      0.9213473696E+01
          0                 4           2             4    7     1       0.7258216879E-01       5    6    1         0.4007094632E+01      0.9815497524E+01
          0                 5           2             4    7     1      -0.2888884675E-02       4    8    1        -0.1639436902E+00      0.4015649980E+00
          0                 6           1             4    7     1       0.3564750411E-04       4    8    1         0.2079190567E-02      0.5092791614E-02

    ------------------------------------------------
       NWT REQUIRED            6 OUTER ITERATIONS 
       AND A TOTAL OF         11 INNER ITERATIONS.
    ------------------------------------------------

 NO OUTPUT CONTROL FOR STRESS PERIOD   43   TIME STEP   21
 
 SOLVING FOR HEAD 
                                                   Max.-Head-Change                         Max.-Flux-Residual
  Residual-Control   Outer-Iter.   Inner-Iter.     Column Row Layer    Maximum-Head-Change  Column Row Layer    Maximum-Flux-Residual          L2-NORM 
          0                 1           2             4   13     1       0.7696852765E-02       4   13    1         0.4435607023E+00      0.8281073956E+00
          0                 2           2             4   13     1      -0.7413926616E-03       4   13    1        -0.4393073170E-01      0.8103175699E-01
          0                 3           2             4    7     1      -0.6971755484E-01       5    8    1        -0.3744375572E+01      0.9213512324E+01
          0                 4           2             4    7     1       0.7258216862E-01       5    6    1         0.4007094761E+01      0.9815498018E+01
          0                 5           2             4    7     1      -0.2888884668E-02       4    8    1        -0.1639436964E+00      0.4015650155E+00
          0                 6           1             4    7     1       0.3564750388E-04       4    8    1         0.2079190666E-02      0.5092792380E-02

    ------------------------------------------------
       NWT REQUIRED            6 OUTER ITERATIONS 
       AND A TOTAL OF         11 INNER ITERATIONS.
    ------------------------------------------------

 NO OUTPUT CONTROL FOR STRESS PERIOD   43   TIME STEP   22
 
 SOLVING FOR HEAD 
                                                   Max.-Head-Change                         Max.-Flux-Residual
  Residual-Control   Outer-Iter.   Inner-Iter.     Column Row Layer    Maximum-Head-Change  Column Row Layer    Maximum-Flux-Residual          L2-NORM 
          0                 1           2             4   13     1       0.7794899126E-02       4   13    1         0.4491760505E+00      0.8375785248E+00
          0                 2           2             4   13     1      -0.7508688625E-03       4   13    1        -0.4448876387E-01      0.8194169712E-01
          0                 3           2             4    7     1      -0.6971759150E-01       5    8    1        -0.3744377511E+01      0.9213547792E+01
          0                 4           2             4    7     1       0.7258216381E-01       5    6    1         0.4007094633E+01      0.9815497887E+01
          0                 5           2             4    7     1      -0.2888884477E-02       4    8    1        -0.1639436921E+00      0.4015650107E+00
          0                 6           1             4    7     1       0.3564750142E-04       4    8    1         0.2079190604E-02      0.5092789419E-02

    ------------------------------------------------
       NWT REQUIRED            6 OUTER ITERATIONS 
       AND A TOTAL OF         11 INNER ITERATIONS.
    ------------------------------------------------

 NO OUTPUT CONTROL FOR STRESS PERIOD   43   TIME STEP   23
 
 SOLVING FOR HEAD 
                                                   Max.-Head-Change                         Max.-Flux-Residual
  Residual-Control   Outer-Iter.   Inner-Iter.     Column Row Layer    Maximum-Head-Change  Column Row Layer    Maximum-Flux-Residual          L2-NORM 
          0                 1           2             4   13     1       0.7884205296E-02       4   13    1         0.4542878208E+00      0.8463608621E+00
          0                 2           2             4   13     1      -0.7594473240E-03       4   13    1        -0.4499359959E-01      0.8278350035E-01
          0                 3           2             4    7     1      -0.6971763407E-01       5    8    1        -0.3744379532E+01      0.9213581781E+01
          0                 4           2             4    7     1       0.7258216370E-01       5    6    1         0.4007094757E+01      0.9815498355E+01
          0                 5           2             4    7     1      -0.2888884473E-02       4    8    1        -0.1639436982E+00      0.4015650280E+00
          0                 6           1             4    7     1       0.3564750120E-04       4    8    1         0.2079190668E-02      0.5092786436E-02

    ------------------------------------------------
       NWT REQUIRED            6 OUTER ITERATIONS 
       AND A TOTAL OF         11 INNER ITERATIONS.
    ------------------------------------------------

 NO OUTPUT CONTROL FOR STRESS PERIOD   43   TIME STEP   24
 
 SOLVING FOR HEAD 
                                                   Max.-Head-Change                         Max.-Flux-Residual
  Residual-Control   Outer-Iter.   Inner-Iter.     Column Row Layer    Maximum-Head-Change  Column Row Layer    Maximum-Flux-Residual          L2-NORM 
          0                 1           2             4   13     1       0.7965728346E-02       4   13    1         0.4589513631E+00      0.8544986243E+00
          0                 2           2             4   13     1      -0.7672809270E-03       4   13    1        -0.4545433418E-01      0.8356308547E-01
          0                 3           2             4    7     1      -0.6971767442E-01       5    8    1        -0.3744381519E+01      0.9213613885E+01
          0                 4           2             4    7     1       0.7258216349E-01       5    6    1         0.4007094880E+01      0.9815498830E+01
          0                 5           2             4    7     1      -0.2888884465E-02       4    8    1        -0.1639437044E+00      0.4015669425E+00
          0                 6           1             4    7     1       0.3564750164E-04       4    8    1         0.2079190750E-02      0.5117141170E-02

    ------------------------------------------------
       NWT REQUIRED            6 OUTER ITERATIONS 
       AND A TOTAL OF         11 INNER ITERATIONS.
    ------------------------------------------------

 NO OUTPUT CONTROL FOR STRESS PERIOD   43   TIME STEP   25
 
 SOLVING FOR HEAD 
                                                   Max.-Head-Change                         Max.-Flux-Residual
  Residual-Control   Outer-Iter.   Inner-Iter.     Column Row Layer    Maximum-Head-Change  Column Row Layer    Maximum-Flux-Residual          L2-NORM 
          0                 1           2             4   13     1       0.8040131703E-02       4   13    1         0.4632050159E+00      0.8620472586E+00
          0                 2           2             4   13     1      -0.7744340200E-03       4   13    1        -0.4587478061E-01      0.8428608497E-01
          0                 3           2             4    7     1      -0.6971771446E-01       5    8    1        -0.3744383584E+01      0.9213644039E+01
          0                 4           2             4    7     1       0.7258216328E-01       5    6    1         0.4007095001E+01      0.9815499275E+01
          0                 5           2             4    7     1      -0.2888884456E-02       4    8    1        -0.1639437105E+00      0.4015650677E+00
          0                 6           1             4    7     1       0.3564750120E-04       4    8    1         0.2079190823E-02      0.5092791138E-02

    ------------------------------------------------
       NWT REQUIRED            6 OUTER ITERATIONS 
       AND A TOTAL OF         11 INNER ITERATIONS.
    ------------------------------------------------

 NO OUTPUT CONTROL FOR STRESS PERIOD   43   TIME STEP   26
 
 SOLVING FOR HEAD 
                                                   Max.-Head-Change                         Max.-Flux-Residual
  Residual-Control   Outer-Iter.   Inner-Iter.     Column Row Layer    Maximum-Head-Change  Column Row Layer    Maximum-Flux-Residual          L2-NORM 
          0                 1           2             4   13     1       0.8108074467E-02       4   13    1         0.4670868302E+00      0.8690470638E+00
          0                 2           2             4   13     1      -0.7809715312E-03       4   13    1        -0.4625880451E-01      0.8495691766E-01
          0                 3           2             4    7     1      -0.6971774530E-01       5    8    1        -0.3744385021E+01      0.9213671195E+01
          0                 4           2             4    7     1       0.7258215382E-01       5    6    1         0.4007094610E+01      0.9815498459E+01
          0                 5           2             4    7     1      -0.2888884080E-02       4    8    1        -0.1639436957E+00      0.4015650324E+00
          0                 6           1             4    7     1       0.3564749649E-04       4    8    1         0.2079190644E-02      0.5092772968E-02

    ------------------------------------------------
       NWT REQUIRED            6 OUTER ITERATIONS 
       AND A TOTAL OF         11 INNER ITERATIONS.
    ------------------------------------------------

 NO OUTPUT CONTROL FOR STRESS PERIOD   43   TIME STEP   27
 
 SOLVING FOR HEAD 
                                                   Max.-Head-Change                         Max.-Flux-Residual
  Residual-Control   Outer-Iter.   Inner-Iter.     Column Row Layer    Maximum-Head-Change  Column Row Layer    Maximum-Flux-Residual          L2-NORM 
          0                 1           2             4   13     1       0.8170109145E-02       4   13    1         0.4706288554E+00      0.8755283284E+00
          0                 2           2             4   13     1      -0.7869332674E-03       4   13    1        -0.4660878406E-01      0.8557733179E-01
          0                 3           2             4    7     1      -0.6971778470E-01       5    8    1        -0.3744386903E+01      0.9213698121E+01
          0                 4           2             4    7     1       0.7258215359E-01       5    6    1         0.4007094728E+01      0.9815498897E+01
          0                 5           2             4    7     1      -0.2888884070E-02       4    8    1        -0.1639437016E+00      0.4015650494E+00
          0                 6           1             4    7     1       0.3564749672E-04       4    8    1         0.2079190698E-02      0.5092792234E-02

    ------------------------------------------------
       NWT REQUIRED            6 OUTER ITERATIONS 
       AND A TOTAL OF         11 INNER ITERATIONS.
    ------------------------------------------------

 NO OUTPUT CONTROL FOR STRESS PERIOD   43   TIME STEP   28
 
 SOLVING FOR HEAD 
                                                   Max.-Head-Change                         Max.-Flux-Residual
  Residual-Control   Outer-Iter.   Inner-Iter.     Column Row Layer    Maximum-Head-Change  Column Row Layer    Maximum-Flux-Residual          L2-NORM 
          0                 1           2             4   13     1       0.8226914856E-02       4   13    1         0.4738701444E+00      0.8815487495E+00
          0                 2           2             4   13     1      -0.7924082085E-03       4   13    1        -0.4692996851E-01      0.8615524382E-01
          0                 3           2             4    7     1      -0.6971782557E-01       5    8    1        -0.3744388868E+01      0.9213723516E+01
          0                 4           2             4    7     1       0.7258215343E-01       5    6    1         0.4007094844E+01      0.9815499320E+01
          0                 5           2             4    7     1      -0.2888884064E-02       4    8    1        -0.1639437077E+00      0.4015650690E+00
          0                 6           1             4    7     1       0.3564749604E-04       4    8    1         0.2079190778E-02      0.5092793689E-02

    ------------------------------------------------
       NWT REQUIRED            6 OUTER ITERATIONS 
       AND A TOTAL OF         11 INNER ITERATIONS.
    ------------------------------------------------

 NO OUTPUT CONTROL FOR STRESS PERIOD   43   TIME STEP   29
 
 SOLVING FOR HEAD 
                                                   Max.-Head-Change                         Max.-Flux-Residual
  Residual-Control   Outer-Iter.   Inner-Iter.     Column Row Layer    Maximum-Head-Change  Column Row Layer    Maximum-Flux-Residual          L2-NORM 
          0                 1           2             4   13     1       0.8278825432E-02       4   13    1         0.4768300286E+00      0.8871276506E+00
          0                 2           2             4   13     1      -0.7973846311E-03       4   13    1        -0.4722169397E-01      0.8668852278E-01
          0                 3           2             4    7     1      -0.6971785981E-01       5    8    1        -0.3744390447E+01      0.9213746725E+01
          0                 4           2             4    7     1       0.7258214856E-01       5    6    1         0.4007094703E+01      0.9815499097E+01
          0                 5           2             4    7     1      -0.2888883871E-02       4    8    1        -0.1639437032E+00      0.4015650513E+00
          0                 6           1             4    7     1       0.3564749403E-04       4    8    1         0.2079190724E-02      0.5092794498E-02

    ------------------------------------------------
       NWT REQUIRED            6 OUTER ITERATIONS 
       AND A TOTAL OF         11 INNER ITERATIONS.
    ------------------------------------------------

 NO OUTPUT CONTROL FOR STRESS PERIOD   43   TIME STEP   30



 STREAM LISTING     PERIOD     43   STEP       30

 LAYER ROW COL. STREAM  RCH.  FLOW INTO     FLOW TO   FLOW OUT OF   OVRLND.     DIRECT     STREAM       STREAM     STREAM     STREAM   STREAMBED  STREAMBED
                SEG.NO.  NO.  STRM. RCH.    AQUIFER    STRM. RCH.    RUNOFF     PRECIP       ET          HEAD       DEPTH      WIDTH   CONDCTNC.   GRADIENT

   1    1    1     1     1    4.3499E+01  3.1564E-01   4.3183E+01  0.000E+00  0.000E+00  0.000E+00  1.09440E+03  1.356E+00  1.610E+01  7.246E-02  1.452E+00
   1    2    2     1     2    4.3183E+01  4.8894E-01   4.2694E+01  0.000E+00  0.000E+00  0.000E+00  1.08941E+03  1.354E+00  1.604E+01  1.123E-01  1.451E+00
   1    3    3     1     3    4.2694E+01  4.1710E-01   4.2277E+01  0.000E+00  0.000E+00  0.000E+00  1.08377E+03  1.350E+00  1.598E+01  9.588E-02  1.450E+00
   1    3    4     1     4    4.2277E+01  3.8418E-01   4.1893E+01  0.000E+00  0.000E+00  0.000E+00  1.07876E+03  1.347E+00  1.592E+01  8.837E-02  1.449E+00
   1    4    5     2     1    3.9893E+01  3.5834E-01   3.9534E+01  0.000E+00  0.000E+00  0.000E+00  1.07353E+03  1.594E+00  1.200E+01  7.800E-02  1.531E+00
   1    5    6     2     2    3.9534E+01  2.7519E-01   3.9259E+01  0.000E+00  0.000E+00  0.000E+00  1.06810E+03  1.586E+00  1.200E+01  6.000E-02  1.529E+00
   1    6    6     2     3    3.9259E+01  2.7479E-01   3.8985E+01  0.000E+00  0.000E+00  0.000E+00  1.06337E+03  1.580E+00  1.200E+01  6.000E-02  1.527E+00
   1    7    6     2     4    3.8985E+01  2.7439E-01   3.8710E+01  0.000E+00  0.000E+00  0.000E+00  1.05865E+03  1.573E+00  1.200E+01  6.000E-02  1.524E+00
   1    8    6     2     5    3.8710E+01  2.7399E-01   3.8436E+01  0.000E+00  0.000E+00  0.000E+00  1.05392E+03  1.566E+00  1.200E+01  6.000E-02  1.522E+00
   1    3    5     3     1    2.0000E+00  2.8252E-01   1.7175E+00  0.000E+00  0.000E+00  0.000E+00  1.07555E+03  1.909E+00  9.636E+00  7.227E-02  1.955E+00
   1    3    6     3     2    1.7175E+00  2.4905E-01   1.4684E+00  0.000E+00  0.000E+00  0.000E+00  1.07264E+03  1.727E+00  8.909E+00  6.682E-02  1.864E+00
   1    3    7     3     3    1.4684E+00  1.9718E-01   1.2712E+00  0.000E+00  0.000E+00  0.000E+00  1.06987E+03  1.555E+00  8.218E+00  5.547E-02  1.777E+00
   1    4    8     3     4    1.2712E+00  2.2567E-01   1.0456E+00  0.000E+00  0.000E+00  0.000E+00  1.06682E+03  1.364E+00  7.455E+00  6.709E-02  1.682E+00
   1    5    8     3     5    1.0456E+00  1.5790E-01   8.8768E-01  0.000E+00  0.000E+00  0.000E+00  1.06362E+03  1.164E+00  6.655E+00  4.991E-02  1.582E+00
   1    6    8     3     6    8.8768E-01  5.5980E-02   8.3170E-01  0.000E+00  0.000E+00  0.000E+00  1.06158E+03  1.036E+00  6.145E+00  1.844E-02  1.518E+00
   1    5   10     4     1    1.0000E+01  9.0919E-02   9.9091E+00  0.000E+00  0.000E+00  0.000E+00  1.07836E+03  6.368E-01  1.000E+01  2.500E-02  1.212E+00
   1    5    9     4     2    9.9091E+00  1.8158E-01   9.7275E+00  0.000E+00  0.000E+00  0.000E+00  1.07154E+03  6.315E-01  1.000E+01  5.000E-02  1.211E+00
   1    6    8     4     3    9.7275E+00  1.2689E-01   9.6006E+00  0.000E+00  0.000E+00  0.000E+00  1.06381E+03  6.256E-01  1.000E+01  3.500E-02  1.209E+00
   1    6    8     5     1    1.0432E+01  2.2686E-01   1.0205E+01  0.000E+00  0.000E+00  0.000E+00  1.05868E+03  6.790E-01  1.542E+01  6.166E-02  1.226E+00
   1    7    7     5     2    1.0205E+01  2.7894E-01   9.9265E+00  0.000E+00  0.000E+00  0.000E+00  1.05417E+03  6.732E-01  1.519E+01  7.594E-02  1.224E+00
   1    8    7     5     3    9.9265E+00  1.9221E-01   9.7343E+00  0.000E+00  0.000E+00  0.000E+00  1.04992E+03  6.676E-01  1.497E+01  5.241E-02  1.223E+00
   1    8    6     5     4    9.7343E+00  1.3577E-01   9.5985E+00  0.000E+00  0.000E+00  0.000E+00  1.04691E+03  6.637E-01  1.482E+01  3.706E-02  1.221E+00
   1    9    6     6     1    2.5565E+01  2.5403E-01   2.5311E+01  0.000E+00  0.000E+00  0.000E+00  1.04396E+03  1.234E+00  1.200E+01  6.000E-02  1.411E+00
   1   10    7     6     2    2.5311E+01  2.5359E-01   2.5057E+01  0.000E+00  0.000E+00  0.000E+00  1.03941E+03  1.226E+00  1.200E+01  6.000E-02  1.409E+00
   1   11    7     6     3    2.5057E+01  2.5314E-01   2.4804E+01  0.000E+00  0.000E+00  0.000E+00  1.03486E+03  1.219E+00  1.200E+01  6.000E-02  1.406E+00
   1   12    7     6     4    2.4804E+01  2.5270E-01   2.4552E+01  0.000E+00  0.000E+00  0.000E+00  1.03030E+03  1.212E+00  1.200E+01  6.000E-02  1.404E+00
   1   13    7     6     5    2.4552E+01  2.9997E-03   2.4549E+01  0.000E+00  0.000E+00  0.000E+00  1.02712E+03  1.208E+00  1.200E+01  2.400E-02  4.166E-02
   1   14    9     7     1    1.5000E+02  1.3495E+00   1.4865E+02  0.000E+00  0.000E+00  0.000E+00  1.03987E+03  2.288E+00  5.529E+01  5.593E-01  8.043E-01
   1   13    8     7     2    1.4865E+02  1.8683E+00   1.4678E+02  0.000E+00  0.000E+00  0.000E+00  1.03478E+03  2.279E+00  5.526E+01  6.148E-01  1.013E+00
   1   13    7     7     3    1.4678E+02  1.5064E+00   1.4528E+02  0.000E+00  0.000E+00  0.000E+00  1.02969E+03  2.270E+00  5.522E+01  5.584E-01  8.992E-01
   1   13    6     8     1    1.6982E+02  9.4383E-01   1.6888E+02  0.000E+00  0.000E+00  0.000E+00  1.02482E+03  2.948E+00  4.275E+01  4.356E-01  7.223E-01
   1   13    5     8     2    1.6888E+02  1.8761E-01   1.6869E+02  0.000E+00  0.000E+00  0.000E+00  1.01857E+03  2.944E+00  4.269E+01  4.350E-01  1.437E-01
   1   13    4     8     3    1.6869E+02 -2.4181E+00   1.7111E+02  0.000E+00  0.000E+00  0.000E+00  1.01233E+03  2.952E+00  4.280E+01  4.361E+00 -1.848E-01
   1   13    3     8     4    1.7111E+02 -3.6500E+00   1.7476E+02  0.000E+00  0.000E+00  0.000E+00  1.00610E+03  2.971E+00  4.308E+01  4.390E+00 -2.771E-01
   1   13    2     8     5    1.7476E+02 -2.6089E+00   1.7737E+02  0.000E+00  0.000E+00  0.000E+00  9.99866E+02  2.991E+00  4.337E+01  4.420E+00 -1.968E-01
   1   13    1     8     6    1.7737E+02 -2.0376E+00   1.7941E+02  0.000E+00  0.000E+00  0.000E+00  9.94881E+02  3.006E+00  4.359E+01  2.665E+00 -2.549E-01
   1    8    6     9     1    2.2470E+01  0.0000E+00   2.2470E+01  0.000E+00  0.000E+00  0.000E+00  1.08243E+03  3.683E+00  4.000E+00  0.000E+00  2.228E+00
   1    8    5     9     2    2.2470E+01  0.0000E+00   2.2470E+01  0.000E+00  0.000E+00  0.000E+00  1.08193E+03  3.683E+00  4.000E+00  0.000E+00  2.228E+00





UNSATURATED ZONE PACKAGE VOLUMETRIC BUDGET FOR  TIME STEP    30 STRESS PERIOD   43
  ------------------------------------------------------------------------------



     CUMULATIVE VOLUMES      L**3       RATES FOR THIS TIME STEP      L**3/T
     ------------------                 ------------------------

           IN:                                      IN:
           ---                                      ---
        INFILTRATION =  1516718301.6870          INFILTRATION =          23.3177

          OUT:                                     OUT:
          ----                                     ----
              UZF ET =  1377719232.6567                UZF ET =          23.3175
        UZF RECHARGE =       73224.0000          UZF RECHARGE =       0.0000E+00

            IN - OUT =   138925845.0303              IN - OUT =       1.6594E-04

          STORAGE:                                 STORAGE:
          --------                                 --------
      STORAGE CHANGE =   138927203.7798        STORAGE CHANGE =       1.6413E-04

 PERCENT DISCREPANCY IS DIFFERENCE BETWEEN IN-OUT MINUS CHANGE IN STORAGE
 DIVIDED BY THE AVERAGE OF IN AND OUT TIMES 100

 PERCENT DISCREPANCY =          -0.00     PERCENT DISCREPANCY =           0.00






1
  VOLUMETRIC BUDGET FOR AGRICULTURAL FIELDS AT  END OF TIME STEP   30, STRESS PERIOD  43
  ------------------------------------------------------------------------------

     CUMULATIVE VOLUMES      L**3       RATES FOR THIS TIME STEP      L**3/T
     ------------------                 ------------------------

           IN:                                      IN:
           ---                                      ---
               AG WELLS  =   381194528.0000                 AG WELLS  =           0.0000
      DIVERSION SEGMENTS =  1041891648.0000        DIVERSION SEGMENTS =          22.4697
       IRRIGATION PONDS  =           0.0000         IRRIGATION PONDS  =           0.0000
           GW IRRIGATION =           0.0000             GW IRRIGATION =           0.0000
           SW IRRIGATION =           0.0000             SW IRRIGATION =           0.0000
        SYSTEM LOSSES GW =           0.0000          SYSTEM LOSSES GW =           0.0000
        SYSTEM LOSSES SW =           0.0000          SYSTEM LOSSES SW =           0.0000

                TOTAL IN =  1423086208.0000                  TOTAL IN =          22.4697

          OUT:                                     OUT:
          ----                                     ----
               AG WELLS  =           0.0000                 AG WELLS  =           0.0000
      DIVERSION SEGMENTS =           0.0000        DIVERSION SEGMENTS =           0.0000
       IRRIGATION PONDS  =           0.0000         IRRIGATION PONDS  =           0.0000
           GW IRRIGATION =   381194528.0000             GW IRRIGATION =           0.0000
           SW IRRIGATION =  1041912000.0000             SW IRRIGATION =          22.4702
        SYSTEM LOSSES GW =           0.0000          SYSTEM LOSSES GW =           0.0000
        SYSTEM LOSSES SW =           0.0000          SYSTEM LOSSES SW =           0.0000

               TOTAL OUT =  1423106560.0000                 TOTAL OUT =          22.4702

                IN - OUT =      -20352.0000                  IN - OUT =      -4.4823E-04

     PERCENT DISCREPANCY =          -0.00         PERCENT DISCREPANCY =          -0.00



1
  VOLUMETRIC BUDGET FOR ENTIRE MODEL AT END OF TIME STEP   30, STRESS PERIOD  43
  ------------------------------------------------------------------------------

     CUMULATIVE VOLUMES      L**3       RATES FOR THIS TIME STEP      L**3/T
     ------------------                 ------------------------

           IN:                                      IN:
           ---                                      ---
             STORAGE     =   681856896.0000               STORAGE     =           0.8757
       CONSTANT HEAD     =           0.0000         CONSTANT HEAD     =           0.0000
     HEAD DEP BOUNDS     =    31612190.0000       HEAD DEP BOUNDS     =           0.2867
      STREAM LEAKAGE     =  1330149248.0000        STREAM LEAKAGE     =          12.3361
        UZF RECHARGE     =       73223.9531          UZF RECHARGE     =           0.0000
               GW ET     =           0.0000                 GW ET     =           0.0000
     SURFACE LEAKAGE     =           0.0000       SURFACE LEAKAGE     =           0.0000
           AG WELLS      =           0.0000             AG WELLS      =           0.0000

                TOTAL IN =  2043691520.0000                  TOTAL IN =          13.4985

          OUT:                                     OUT:
          ----                                     ----
             STORAGE     =   445432640.0000               STORAGE     =           2.4932
       CONSTANT HEAD     =           0.0000         CONSTANT HEAD     =           0.0000
     HEAD DEP BOUNDS     =    32154402.0000       HEAD DEP BOUNDS     =           0.2905
      STREAM LEAKAGE     =  1181575936.0000        STREAM LEAKAGE     =          10.7145
        UZF RECHARGE     =           0.0000          UZF RECHARGE     =           0.0000
               GW ET     =     3343843.5000                 GW ET     =           0.0000
     SURFACE LEAKAGE     =           0.0000       SURFACE LEAKAGE     =           0.0000
           AG WELLS      =   381194528.0000             AG WELLS      =           0.0000

               TOTAL OUT =  2043701376.0000                 TOTAL OUT =          13.4983

                IN - OUT =       -9856.0000                  IN - OUT =       1.8787E-04

     PERCENT DISCREPANCY =          -0.00         PERCENT DISCREPANCY =           0.00






         TIME SUMMARY AT END OF TIME STEP   30 IN STRESS PERIOD   43
                    SECONDS     MINUTES      HOURS       DAYS        YEARS
                    -----------------------------------------------------------
   TIME STEP LENGTH  87667.      1461.1      24.352      1.0147     2.77799E-03
 STRESS PERIOD TIME 2.63000E+06  43833.      730.56      30.440     8.33397E-02
         TOTAL TIME 1.10545E+08 1.84242E+06  30707.      1279.5      3.5030    
1
1
                            STRESS PERIOD NO.   44, LENGTH =   2630000.    
                            -----------------------------------------------

                              NUMBER OF TIME STEPS =    30

                               MULTIPLIER FOR DELT =     1.000

                            INITIAL TIME STEP SIZE =   87666.66    

 REUSING NON-PARAMETER GHB CELLS FROM LAST STRESS PERIOD

      2 GHB CELLS

 REUSING STREAM SEGMENT DATA FROM LAST STRESS PERIOD



            AREAL INFILTRATION RATE
 READING ON UNIT   19 WITH FORMAT: (FREE)              

            1           2           3           4           5           6           7           8           9          10
 ........................................................................................................................
   1   1.0000E-10  2.0000E-10   0.000       0.000       0.000       0.000       0.000       0.000       0.000       0.000    
   2   2.0000E-10  1.0000E-10  2.0000E-10   0.000       0.000      8.0000E-10  8.0000E-10  5.0000E-10   0.000       0.000    
   3    0.000      5.0000E-10  1.0000E-10  1.0000E-10  8.0000E-10  8.0000E-10  5.0000E-10  5.0000E-10   0.000       0.000    
   4   8.0000E-10  5.0000E-10  1.0000E-10  1.0000E-10  1.0000E-10  1.0000E-10  1.0000E-10  1.0000E-10  2.0000E-10   0.000    
   5   8.0000E-10  5.0000E-10  1.0000E-10  1.0000E-10  1.0000E-10  1.0000E-10  1.0000E-10  1.0000E-10  1.0000E-10  1.0000E-10
   6   8.0000E-10  5.0000E-10  5.0000E-10  2.0000E-10  2.0000E-10  1.0000E-10  1.0000E-10  1.0000E-10  1.0000E-10  5.0000E-10
   7   8.0000E-10  5.0000E-10  5.0000E-10  2.0000E-10  2.0000E-10  1.0000E-10  1.0000E-10  2.0000E-10  2.0000E-10   0.000    
   8    0.000      5.0000E-10  5.0000E-10  2.0000E-10  2.0000E-10  1.0000E-10  1.0000E-10  2.0000E-10  5.0000E-10   0.000    
   9    0.000      5.0000E-10  5.0000E-10  2.0000E-10  2.0000E-10  1.0000E-10  1.0000E-10  2.0000E-10  5.0000E-10   0.000    
  10    0.000      5.0000E-10  5.0000E-10  2.0000E-10  2.0000E-10  1.0000E-10  1.0000E-10  2.0000E-10  5.0000E-10  8.0000E-10
  11    0.000      1.0000E-10  1.0000E-10  1.0000E-10  1.0000E-10  1.0000E-10  1.0000E-10  2.0000E-10  5.0000E-10   0.000    
  12   1.0000E-10  1.0000E-10  1.0000E-10  1.0000E-10  1.0000E-10  1.0000E-10  1.0000E-10  1.0000E-10  2.0000E-10   0.000    
  13   1.0000E-10  1.0000E-10  2.0000E-10  2.0000E-10  2.0000E-10  2.0000E-10  2.0000E-10  1.0000E-10  1.0000E-10   0.000    
  14    0.000      2.0000E-10  5.0000E-10  5.0000E-10  5.0000E-10  5.0000E-10  5.0000E-10  2.0000E-10  1.0000E-10   0.000    
  15    0.000       0.000      8.0000E-10  8.0000E-10  8.0000E-10  8.0000E-10   0.000       0.000       0.000       0.000    

                  ET RATE =  4.000000E-07

 USING ET EXTINCTION DEPTH FROM PREVIOUS STRESS PERIOD. CURRENT PERIOD IS:      44

 USING EXTINCTION WATER CONTENT FROM PREVIOUS STRESS PERIOD. CURRENT PERIOD IS:      44

 USING AIR ENTRY PRESSURE FROM PREVIOUS STRESS PERIOD. CURRENT PERIOD IS:      44

 USING ROOT PRESSURE HEAD FROM PREVIOUS STRESS PERIOD. CURRENT PERIOD IS:      44

 USING ROOT ACTIVITY FROM PREVIOUS STRESS PERIOD. CURRENT PERIOD IS:      44

 PROCESSING AG STRESS PERIOD DATA

 READING AG STRESS PERIOD DATA

 READING IRRIGATION SEGMENT

 READING IRRIGATION WELL

 READING SUPPLEMENTAL WELL

 NO IRRPOND OR REUSING IRRPOND DATA FROM LAST STRESS PERIOD

 END PROCESSING AG STRESS PERIOD DATA OPTIONS
 
 SOLVING FOR HEAD 
                                                   Max.-Head-Change                         Max.-Flux-Residual
  Residual-Control   Outer-Iter.   Inner-Iter.     Column Row Layer    Maximum-Head-Change  Column Row Layer    Maximum-Flux-Residual          L2-NORM 
          0                 1           2             4   13     1      -0.6782153582E-02       4   13    1        -0.3868516644E+00      0.8113626745E+00
          0                 2           2             4    7     1      -0.1831941615E+00       4    7    1        -0.9838749802E+01      0.2409834293E+02
          0                 3           2             4    7     1       0.1247354830E-01       4    7    1         0.6886787419E+00      0.1685375028E+01
          0                 4           2             4    7     1      -0.4963367312E-03       4    7    1        -0.2816715885E-01      0.6893425347E-01
          0                 5           1             4    7     1       0.6120042795E-05       4    7    1         0.3569644623E-03      0.8739511781E-03

    ------------------------------------------------
       NWT REQUIRED            5 OUTER ITERATIONS 
       AND A TOTAL OF          9 INNER ITERATIONS.
    ------------------------------------------------

 NO OUTPUT CONTROL FOR STRESS PERIOD   44   TIME STEP    1
 
 SOLVING FOR HEAD 
                                                   Max.-Head-Change                         Max.-Flux-Residual
  Residual-Control   Outer-Iter.   Inner-Iter.     Column Row Layer    Maximum-Head-Change  Column Row Layer    Maximum-Flux-Residual          L2-NORM 
          0                 1           2             4   13     1       0.8893444161E-02       4   13    1         0.5122941573E+00      0.1150551444E+01
          0                 2           2             7   13     1      -0.2987543752E-02       7   13    1        -0.1656994618E+00      0.3397171473E+00
          0                 3           2             4    7     1      -0.9824066547E-01       4    7    1        -0.5276104450E+01      0.1298221981E+02
          0                 4           2             4    7     1       0.1006792518E+00       5    7    1         0.5557637077E+01      0.1361242427E+02
          0                 5           2             4    7     1      -0.9624166843E-01       4    7    1        -0.5461337549E+01      0.1337758613E+02
          0                 6           2             4    7     1       0.1434586448E-01       5    6    1         0.8386301035E+00      0.2053137926E+01
          0                 7           2             4    7     1       0.2108147427E-03       4    6    1         0.1232028830E-01      0.3016835665E-01
          0                 8           1             4    7     1       0.3096469250E-05       4    8    1         0.1808336215E-03      0.4442095594E-03

    ------------------------------------------------
       NWT REQUIRED            8 OUTER ITERATIONS 
       AND A TOTAL OF         15 INNER ITERATIONS.
    ------------------------------------------------

 NO OUTPUT CONTROL FOR STRESS PERIOD   44   TIME STEP    2
 
 SOLVING FOR HEAD 
                                                   Max.-Head-Change                         Max.-Flux-Residual
  Residual-Control   Outer-Iter.   Inner-Iter.     Column Row Layer    Maximum-Head-Change  Column Row Layer    Maximum-Flux-Residual          L2-NORM 
          0                 1           2             4   13     1       0.9461985077E-02       4   13    1         0.5451158628E+00      0.1349666818E+01
          0                 2           2             5    8     1      -0.1688528413E-01       5    8    1        -0.9299027420E+00      0.2271587154E+01
          0                 3           2             4    7     1      -0.1417965001E+00       4    7    1        -0.7611147021E+01      0.1868346064E+02
          0                 4           2             4    7     1       0.1097796237E+00       4    7    1         0.6057255525E+01      0.1483657182E+02
          0                 5           2             4    7     1      -0.4369759608E-02       4    8    1        -0.2493518602E+00      0.6076201246E+00
          0                 6           1             4    7     1       0.5392090916E-04       4    8    1         0.3160240604E-02      0.7723253850E-02

    ------------------------------------------------
       NWT REQUIRED            6 OUTER ITERATIONS 
       AND A TOTAL OF         11 INNER ITERATIONS.
    ------------------------------------------------

 NO OUTPUT CONTROL FOR STRESS PERIOD   44   TIME STEP    3
 
 SOLVING FOR HEAD 
                                                   Max.-Head-Change                         Max.-Flux-Residual
  Residual-Control   Outer-Iter.   Inner-Iter.     Column Row Layer    Maximum-Head-Change  Column Row Layer    Maximum-Flux-Residual          L2-NORM 
          0                 1           2             5    8     1       0.1004102468E-01       4   13    1         0.5748417697E+00      0.1483288087E+01
          0                 2           2             4    7     1      -0.2694406189E-01       5    8    1        -0.1480872434E+01      0.3620859719E+01
          0                 3           2             4    7     1      -0.1193192565E+00       4    7    1        -0.6404654613E+01      0.1572540348E+02
          0                 4           2             4    7     1       0.9838083390E-01       4    7    1         0.5428325453E+01      0.1329557716E+02
          0                 5           2             4    7     1      -0.3915724842E-02       4    8    1        -0.2221260991E+00      0.5439878654E+00
          0                 6           1             4    7     1       0.4831832884E-04       4    7    1         0.2816003624E-02      0.6915328730E-02

    ------------------------------------------------
       NWT REQUIRED            6 OUTER ITERATIONS 
       AND A TOTAL OF         11 INNER ITERATIONS.
    ------------------------------------------------

 NO OUTPUT CONTROL FOR STRESS PERIOD   44   TIME STEP    4
 
 SOLVING FOR HEAD 
                                                   Max.-Head-Change                         Max.-Flux-Residual
  Residual-Control   Outer-Iter.   Inner-Iter.     Column Row Layer    Maximum-Head-Change  Column Row Layer    Maximum-Flux-Residual          L2-NORM 
          0                 1           2             5    8     1       0.1112451176E-01       5    8    1         0.6073093121E+00      0.1609944151E+01
          0                 2           2             4    7     1      -0.3781364854E-01       5    8    1        -0.2068095839E+01      0.5061347801E+01
          0                 3           2             4    7     1      -0.9751102365E-01       4    7    1        -0.5234021536E+01      0.1285500066E+02
          0                 4           2             4    7     1       0.8636117671E-01       4    7    1         0.4765082905E+01      0.1167223947E+02
          0                 5           2             4    7     1      -0.3437308291E-02       4    7    1        -0.1949388099E+00      0.4775053488E+00
          0                 6           1             4    7     1       0.4241489135E-04       4    7    1         0.2471940882E-02      0.6071265490E-02

    ------------------------------------------------
       NWT REQUIRED            6 OUTER ITERATIONS 
       AND A TOTAL OF         11 INNER ITERATIONS.
    ------------------------------------------------

 NO OUTPUT CONTROL FOR STRESS PERIOD   44   TIME STEP    5
 
 SOLVING FOR HEAD 
                                                   Max.-Head-Change                         Max.-Flux-Residual
  Residual-Control   Outer-Iter.   Inner-Iter.     Column Row Layer    Maximum-Head-Change  Column Row Layer    Maximum-Flux-Residual          L2-NORM 
          0                 1           2             5    8     1       0.1216908424E-01       5    8    1         0.6645382852E+00      0.1678229891E+01
          0                 2           2             4    7     1      -0.4739945877E-01       5    8    1        -0.2586102610E+01      0.6330856358E+01
          0                 3           2             4    7     1      -0.7992626411E-01       4    7    1        -0.4290160118E+01      0.1053221366E+02
          0                 4           2             4    7     1       0.6867326733E-01       4    7    1         0.3789130157E+01      0.9281664558E+01
          0                 5           2             4    7     1      -0.2733305747E-02       4    7    1        -0.1550129220E+00      0.3797198200E+00
          0                 6           1             4    7     1       0.3372781819E-04       4    7    1         0.1965656919E-02      0.4830301146E-02

    ------------------------------------------------
       NWT REQUIRED            6 OUTER ITERATIONS 
       AND A TOTAL OF         11 INNER ITERATIONS.
    ------------------------------------------------

 NO OUTPUT CONTROL FOR STRESS PERIOD   44   TIME STEP    6
 
 SOLVING FOR HEAD 
                                                   Max.-Head-Change                         Max.-Flux-Residual
  Residual-Control   Outer-Iter.   Inner-Iter.     Column Row Layer    Maximum-Head-Change  Column Row Layer    Maximum-Flux-Residual          L2-NORM 
          0                 1           2             5    8     1       0.1343149420E-01       5    8    1         0.7337021682E+00      0.1814310543E+01
          0                 2           2             4    7     1      -0.6272842882E-01       5    8    1        -0.3413259355E+01      0.8361302300E+01
          0                 3           2             4    7     1      -0.5006384798E-01       4    7    1        -0.2687278611E+01      0.6599741925E+01
          0                 4           2             4    7     1       0.5014196512E-01       4    7    1         0.2766643454E+01      0.6777209296E+01
          0                 5           2             4    7     1      -0.1995743442E-02       4    7    1        -0.1131838478E+00      0.2772833064E+00
          0                 6           1             4    7     1       0.2462662570E-04       4    7    1         0.1435240498E-02      0.3531177289E-02

    ------------------------------------------------
       NWT REQUIRED            6 OUTER ITERATIONS 
       AND A TOTAL OF         11 INNER ITERATIONS.
    ------------------------------------------------

 NO OUTPUT CONTROL FOR STRESS PERIOD   44   TIME STEP    7
 
 SOLVING FOR HEAD 
                                                   Max.-Head-Change                         Max.-Flux-Residual
  Residual-Control   Outer-Iter.   Inner-Iter.     Column Row Layer    Maximum-Head-Change  Column Row Layer    Maximum-Flux-Residual          L2-NORM 
          0                 1           2             5    8     1       0.1472746345E-01       5    8    1         0.8046655907E+00      0.1967195402E+01
          0                 2           2             4    7     1      -0.6974409039E-01       5    8    1        -0.3794200908E+01      0.9294437101E+01
          0                 3           2             4    7     1      -0.3841993825E-01       4    7    1        -0.2062288763E+01      0.5066005373E+01
          0                 4           2             4    7     1       0.4257350540E-01       4    7    1         0.2349043848E+01      0.5754367297E+01
          0                 5           2             4    7     1      -0.1694511536E-02       4    7    1        -0.9610016895E-01      0.2354505235E+00
          0                 6           1             4    7     1       0.2090955525E-04       4    7    1         0.1218609411E-02      0.3001174853E-02

    ------------------------------------------------
       NWT REQUIRED            6 OUTER ITERATIONS 
       AND A TOTAL OF         11 INNER ITERATIONS.
    ------------------------------------------------

 NO OUTPUT CONTROL FOR STRESS PERIOD   44   TIME STEP    8
 
 SOLVING FOR HEAD 
                                                   Max.-Head-Change                         Max.-Flux-Residual
  Residual-Control   Outer-Iter.   Inner-Iter.     Column Row Layer    Maximum-Head-Change  Column Row Layer    Maximum-Flux-Residual          L2-NORM 
          0                 1           2             5    8     1       0.1603649154E-01       5    8    1         0.8763118703E+00      0.2122851520E+01
          0                 2           2             4    7     1      -0.7284785884E-01       5    8    1        -0.3965086741E+01      0.9710898191E+01
          0                 3           2             4    7     1      -0.3405839383E-01       4    7    1        -0.1828184501E+01      0.4490791259E+01
          0                 4           2             4    7     1       0.3930925144E-01       4    7    1         0.2168933464E+01      0.5313206266E+01
          0                 5           2             4    7     1      -0.1564587138E-02       4    7    1        -0.8873176262E-01      0.2173195790E+00
          0                 6           1             4    7     1       0.1930634487E-04       4    7    1         0.1125173461E-02      0.2760788177E-02

    ------------------------------------------------
       NWT REQUIRED            6 OUTER ITERATIONS 
       AND A TOTAL OF         11 INNER ITERATIONS.
    ------------------------------------------------

 NO OUTPUT CONTROL FOR STRESS PERIOD   44   TIME STEP    9
 
 SOLVING FOR HEAD 
                                                   Max.-Head-Change                         Max.-Flux-Residual
  Residual-Control   Outer-Iter.   Inner-Iter.     Column Row Layer    Maximum-Head-Change  Column Row Layer    Maximum-Flux-Residual          L2-NORM 
          0                 1           2             5    8     1       0.1733553563E-01       5    8    1         0.9473722634E+00      0.2278805837E+01
          0                 2           2             4    7     1      -0.7459247152E-01       5    8    1        -0.4062837984E+01      0.9947622259E+01
          0                 3           2             4    7     1      -0.3170509415E-01       4    7    1        -0.1701873768E+01      0.4180213021E+01
          0                 4           2             4    7     1       0.3750618265E-01       4    7    1         0.2069445535E+01      0.5069509322E+01
          0                 5           2             4    7     1      -0.1492823464E-02       4    7    1        -0.8466179467E-01      0.2073497158E+00
          0                 6           1             4    7     1       0.1842081189E-04       4    7    1         0.1073563606E-02      0.2634132689E-02

    ------------------------------------------------
       NWT REQUIRED            6 OUTER ITERATIONS 
       AND A TOTAL OF         11 INNER ITERATIONS.
    ------------------------------------------------

 NO OUTPUT CONTROL FOR STRESS PERIOD   44   TIME STEP   10
 
 SOLVING FOR HEAD 
                                                   Max.-Head-Change                         Max.-Flux-Residual
  Residual-Control   Outer-Iter.   Inner-Iter.     Column Row Layer    Maximum-Head-Change  Column Row Layer    Maximum-Flux-Residual          L2-NORM 
          0                 1           2             5    8     1       0.1860276957E-01       5    8    1         0.1016647399E+01      0.2432589023E+01
          0                 2           2             4    7     1      -0.7557313480E-01       5    8    1        -0.4119311158E+01      0.1008307356E+02
          0                 3           2             4    7     1      -0.3043600969E-01       4    7    1        -0.1633758488E+01      0.4012552811E+01
          0                 4           2             4    7     1       0.3652183042E-01       4    7    1         0.2015131087E+01      0.4936451938E+01
          0                 5           2             4    7     1      -0.1453649627E-02       4    7    1        -0.8244007372E-01      0.2019068919E+00
          0                 6           1             4    7     1       0.1793742330E-04       4    7    1         0.1045390602E-02      0.2565007721E-02

    ------------------------------------------------
       NWT REQUIRED            6 OUTER ITERATIONS 
       AND A TOTAL OF         11 INNER ITERATIONS.
    ------------------------------------------------

 NO OUTPUT CONTROL FOR STRESS PERIOD   44   TIME STEP   11
 
 SOLVING FOR HEAD 
                                                   Max.-Head-Change                         Max.-Flux-Residual
  Residual-Control   Outer-Iter.   Inner-Iter.     Column Row Layer    Maximum-Head-Change  Column Row Layer    Maximum-Flux-Residual          L2-NORM 
          0                 1           2             5    8     1       0.1982641917E-01       5    8    1         0.1083491282E+01      0.2582744461E+01
          0                 2           2             4    7     1      -0.7613369500E-01       5    8    1        -0.4152916001E+01      0.1016258980E+02
          0                 3           2             4    7     1      -0.2975020032E-01       4    7    1        -0.1596950302E+01      0.3921803518E+01
          0                 4           2             4    7     1       0.3598726229E-01       4    7    1         0.1985633847E+01      0.4864177542E+01
          0                 5           2             4    7     1      -0.1432364967E-02       4    7    1        -0.8123288768E-01      0.1989490538E+00
          0                 6           1             4    7     1       0.1767478035E-04       4    7    1         0.1030082539E-02      0.2527446009E-02

    ------------------------------------------------
       NWT REQUIRED            6 OUTER ITERATIONS 
       AND A TOTAL OF         11 INNER ITERATIONS.
    ------------------------------------------------

 NO OUTPUT CONTROL FOR STRESS PERIOD   44   TIME STEP   12
 
 SOLVING FOR HEAD 
                                                   Max.-Head-Change                         Max.-Flux-Residual
  Residual-Control   Outer-Iter.   Inner-Iter.     Column Row Layer    Maximum-Head-Change  Column Row Layer    Maximum-Flux-Residual          L2-NORM 
          0                 1           2             5    8     1       0.2100133818E-01       5    8    1         0.1147623540E+01      0.2728485501E+01
          0                 2           2             4    7     1      -0.7646550207E-01       5    8    1        -0.4173912953E+01      0.1021142278E+02
          0                 3           2             4    7     1      -0.2937839048E-01       4    7    1        -0.1576995672E+01      0.3873120403E+01
          0                 4           2             4    7     1       0.3569766874E-01       4    7    1         0.1969653230E+01      0.4824177745E+01
          0                 5           2             4    7     1      -0.1420847315E-02       4    7    1        -0.8057960836E-01      0.1973440328E+00
          0                 6           1             4    7     1       0.1753265741E-04       4    7    1         0.1021798314E-02      0.2507054338E-02

    ------------------------------------------------
       NWT REQUIRED            6 OUTER ITERATIONS 
       AND A TOTAL OF         11 INNER ITERATIONS.
    ------------------------------------------------

 NO OUTPUT CONTROL FOR STRESS PERIOD   44   TIME STEP   13
 
 SOLVING FOR HEAD 
                                                   Max.-Head-Change                         Max.-Flux-Residual
  Residual-Control   Outer-Iter.   Inner-Iter.     Column Row Layer    Maximum-Head-Change  Column Row Layer    Maximum-Flux-Residual          L2-NORM 
          0                 1           2             5    8     1       0.2212619499E-01       5    8    1         0.1208974851E+01      0.2869467693E+01
          0                 2           2             4    7     1      -0.7667348451E-01       5    8    1        -0.4187937016E+01      0.1024342644E+02
          0                 3           2             4    7     1      -0.2917575119E-01       4    7    1        -0.1566120821E+01      0.3846123898E+01
          0                 4           2             4    7     1       0.3554093279E-01       4    7    1         0.1961003069E+01      0.4802967109E+01
          0                 5           2             4    7     1      -0.1414609096E-02       4    7    1        -0.8022573457E-01      0.1964764141E+00
          0                 6           1             4    7     1       0.1745568044E-04       4    7    1         0.1017310741E-02      0.2496037068E-02

    ------------------------------------------------
       NWT REQUIRED            6 OUTER ITERATIONS 
       AND A TOTAL OF         11 INNER ITERATIONS.
    ------------------------------------------------

 NO OUTPUT CONTROL FOR STRESS PERIOD   44   TIME STEP   14
 
 SOLVING FOR HEAD 
                                                   Max.-Head-Change                         Max.-Flux-Residual
  Residual-Control   Outer-Iter.   Inner-Iter.     Column Row Layer    Maximum-Head-Change  Column Row Layer    Maximum-Flux-Residual          L2-NORM 
          0                 1           2             5    8     1       0.2320160489E-01       5    8    1         0.1267581996E+01      0.3005607458E+01
          0                 2           2             4    7     1      -0.7681466833E-01       5    8    1        -0.4198063175E+01      0.1026615208E+02
          0                 3           2             4    7     1      -0.2906435155E-01       4    7    1        -0.1560142816E+01      0.3831182249E+01
          0                 4           2             4    7     1       0.3545609168E-01       4    7    1         0.1956323795E+01      0.4791477060E+01
          0                 5           2             4    7     1      -0.1411232346E-02       4    7    1        -0.8003856020E-01      0.1960081356E+00
          0                 6           1             4    7     1       0.1741401311E-04       4    7    1         0.1015112666E-02      0.2490091345E-02

    ------------------------------------------------
       NWT REQUIRED            6 OUTER ITERATIONS 
       AND A TOTAL OF         11 INNER ITERATIONS.
    ------------------------------------------------

 NO OUTPUT CONTROL FOR STRESS PERIOD   44   TIME STEP   15
 
 SOLVING FOR HEAD 
                                                   Max.-Head-Change                         Max.-Flux-Residual
  Residual-Control   Outer-Iter.   Inner-Iter.     Column Row Layer    Maximum-Head-Change  Column Row Layer    Maximum-Flux-Residual          L2-NORM 
          0                 1           2             5    8     1       0.2422932385E-01       5    8    1         0.1323544597E+01      0.3136951082E+01
          0                 2           2             4    7     1      -0.7691989976E-01       5    8    1        -0.4205964124E+01      0.1028369347E+02
          0                 3           2             4    7     1      -0.2900219772E-01       4    7    1        -0.1556807925E+01      0.3822120022E+01
          0                 4           2             4    7     1       0.3541012435E-01       4    7    1         0.1953785308E+01      0.4786063129E+01
          0                 5           2             4    7     1      -0.1409402809E-02       4    7    1        -0.7993470871E-01      0.1957570333E+00
          0                 6           1             4    7     1       0.1739143732E-04       4    7    1         0.1013795553E-02      0.2486929880E-02

    ------------------------------------------------
       NWT REQUIRED            6 OUTER ITERATIONS 
       AND A TOTAL OF         11 INNER ITERATIONS.
    ------------------------------------------------

 NO OUTPUT CONTROL FOR STRESS PERIOD   44   TIME STEP   16
 
 SOLVING FOR HEAD 
                                                   Max.-Head-Change                         Max.-Flux-Residual
  Residual-Control   Outer-Iter.   Inner-Iter.     Column Row Layer    Maximum-Head-Change  Column Row Layer    Maximum-Flux-Residual          L2-NORM 
          0                 1           2             5    8     1       0.2521162987E-01       5    8    1         0.1376990719E+01      0.3263645152E+01
          0                 2           2             4    7     1      -0.7700582583E-01       5    8    1        -0.4212553414E+01      0.1029827741E+02
          0                 3           2             4    7     1      -0.2896662572E-01       4    7    1        -0.1554899375E+01      0.3817233503E+01
          0                 4           2             4    7     1       0.3538518814E-01       4    7    1         0.1952407166E+01      0.4782668233E+01
          0                 5           2             4    7     1      -0.1408410327E-02       4    7    1        -0.7987832829E-01      0.1956195933E+00
          0                 6           1             4    7     1       0.1737919051E-04       4    7    1         0.1013080513E-02      0.2485188972E-02

    ------------------------------------------------
       NWT REQUIRED            6 OUTER ITERATIONS 
       AND A TOTAL OF         11 INNER ITERATIONS.
    ------------------------------------------------

 NO OUTPUT CONTROL FOR STRESS PERIOD   44   TIME STEP   17
 
 SOLVING FOR HEAD 
                                                   Max.-Head-Change                         Max.-Flux-Residual
  Residual-Control   Outer-Iter.   Inner-Iter.     Column Row Layer    Maximum-Head-Change  Column Row Layer    Maximum-Flux-Residual          L2-NORM 
          0                 1           2             5    8     1       0.2615083805E-01       5    8    1         0.1428050701E+01      0.3385838853E+01
          0                 2           2             4    7     1      -0.7708141540E-01       5    8    1        -0.4218331883E+01      0.1031111257E+02
          0                 3           2             4    7     1      -0.2894539663E-01       4    7    1        -0.1553760261E+01      0.3814263233E+01
          0                 4           2             4    7     1       0.3537159988E-01       4    7    1         0.1951655097E+01      0.4780825768E+01
          0                 5           2             4    7     1      -0.1407869504E-02       4    8    1        -0.7984999400E-01      0.1955633917E+00
          0                 6           1             4    7     1       0.1737251694E-04       5    7    1         0.1012832426E-02      0.2483727430E-02

    ------------------------------------------------
       NWT REQUIRED            6 OUTER ITERATIONS 
       AND A TOTAL OF         11 INNER ITERATIONS.
    ------------------------------------------------

 NO OUTPUT CONTROL FOR STRESS PERIOD   44   TIME STEP   18
 
 SOLVING FOR HEAD 
                                                   Max.-Head-Change                         Max.-Flux-Residual
  Residual-Control   Outer-Iter.   Inner-Iter.     Column Row Layer    Maximum-Head-Change  Column Row Layer    Maximum-Flux-Residual          L2-NORM 
          0                 1           2             5    8     1       0.2704942855E-01       5    8    1         0.1476863444E+01      0.3503731976E+01
          0                 2           2             4    7     1      -0.7715148846E-01       5    8    1        -0.4223577112E+01      0.1032286168E+02
          0                 3           2             4    7     1      -0.2893187441E-01       4    7    1        -0.1553034423E+01      0.3812332031E+01
          0                 4           2             4    7     1       0.3536412845E-01       4    7    1         0.1951240474E+01      0.4779802873E+01
          0                 5           2             4    7     1      -0.1407572135E-02       4    8    1        -0.7983286568E-01      0.1955313446E+00
          0                 6           1             4    7     1       0.1736884719E-04       4    6    1         0.1012637144E-02      0.2482865492E-02

    ------------------------------------------------
       NWT REQUIRED            6 OUTER ITERATIONS 
       AND A TOTAL OF         11 INNER ITERATIONS.
    ------------------------------------------------

 NO OUTPUT CONTROL FOR STRESS PERIOD   44   TIME STEP   19
 
 SOLVING FOR HEAD 
                                                   Max.-Head-Change                         Max.-Flux-Residual
  Residual-Control   Outer-Iter.   Inner-Iter.     Column Row Layer    Maximum-Head-Change  Column Row Layer    Maximum-Flux-Residual          L2-NORM 
          0                 1           2             5    8     1       0.2790966276E-01       5    8    1         0.1523555541E+01      0.3617509209E+01
          0                 2           2             4    7     1      -0.7721855625E-01       5    8    1        -0.4228442426E+01      0.1033388151E+02
          0                 3           2             4    7     1      -0.2892258732E-01       4    7    1        -0.1552535546E+01      0.3810982395E+01
          0                 4           2             4    7     1       0.3535998789E-01       4    7    1         0.1951009588E+01      0.4779222456E+01
          0                 5           2             4    7     1      -0.1407407338E-02       4    8    1        -0.7982327828E-01      0.1955077813E+00
          0                 6           1             4    7     1       0.1736681410E-04       4    6    1         0.1012515292E-02      0.2482570134E-02

    ------------------------------------------------
       NWT REQUIRED            6 OUTER ITERATIONS 
       AND A TOTAL OF         11 INNER ITERATIONS.
    ------------------------------------------------

 NO OUTPUT CONTROL FOR STRESS PERIOD   44   TIME STEP   20
 
 SOLVING FOR HEAD 
                                                   Max.-Head-Change                         Max.-Flux-Residual
  Residual-Control   Outer-Iter.   Inner-Iter.     Column Row Layer    Maximum-Head-Change  Column Row Layer    Maximum-Flux-Residual          L2-NORM 
          0                 1           2             5    8     1       0.2873384241E-01       5    8    1         0.1568255367E+01      0.3727361718E+01
          0                 2           2             4    7     1      -0.7728397519E-01       5    8    1        -0.4233017434E+01      0.1034437829E+02
          0                 3           2             4    7     1      -0.2891556590E-01       4    7    1        -0.1552157944E+01      0.3809947887E+01
          0                 4           2             4    7     1       0.3535765263E-01       4    7    1         0.1950878267E+01      0.4778887496E+01
          0                 5           2             4    7     1      -0.1423642467E-02       4    8    1        -0.8074380413E-01      0.1977622895E+00
          0                 6           1             4    7     1       0.1750988492E-04       4    6    1         0.1020858121E-02      0.2503012596E-02

    ------------------------------------------------
       NWT REQUIRED            6 OUTER ITERATIONS 
       AND A TOTAL OF         11 INNER ITERATIONS.
    ------------------------------------------------

 NO OUTPUT CONTROL FOR STRESS PERIOD   44   TIME STEP   21
 
 SOLVING FOR HEAD 
                                                   Max.-Head-Change                         Max.-Flux-Residual
  Residual-Control   Outer-Iter.   Inner-Iter.     Column Row Layer    Maximum-Head-Change  Column Row Layer    Maximum-Flux-Residual          L2-NORM 
          0                 1           2             5    8     1       0.2952465389E-01       5    8    1         0.1611112821E+01      0.3833543870E+01
          0                 2           2             4    7     1      -0.7733747503E-01       5    8    1        -0.4236770194E+01      0.1035301826E+02
          0                 3           2             4    7     1      -0.2892452604E-01       4    7    1        -0.1552637845E+01      0.3811040235E+01
          0                 4           2             4    7     1       0.3536796940E-01       4    7    1         0.1951444989E+01      0.4780263637E+01
          0                 5           2             4    7     1      -0.1407725008E-02       4    8    1        -0.7984087636E-01      0.1955507442E+00
          0                 6           1             4    7     1       0.1737073387E-04       4    6    1         0.1012738187E-02      0.2483125265E-02

    ------------------------------------------------
       NWT REQUIRED            6 OUTER ITERATIONS 
       AND A TOTAL OF         11 INNER ITERATIONS.
    ------------------------------------------------

 NO OUTPUT CONTROL FOR STRESS PERIOD   44   TIME STEP   22
 
 SOLVING FOR HEAD 
                                                   Max.-Head-Change                         Max.-Flux-Residual
  Residual-Control   Outer-Iter.   Inner-Iter.     Column Row Layer    Maximum-Head-Change  Column Row Layer    Maximum-Flux-Residual          L2-NORM 
          0                 1           2             5    8     1       0.3028252137E-01       5    8    1         0.1652152323E+01      0.3936078944E+01
          0                 2           2             4    7     1      -0.7740642906E-01       5    8    1        -0.4241176574E+01      0.1036342796E+02
          0                 3           2             4    7     1      -0.2891255815E-01       4    7    1        -0.1551994147E+01      0.3809390674E+01
          0                 4           2             4    7     1       0.3536171987E-01       4    7    1         0.1951097627E+01      0.4779420911E+01
          0                 5           2             4    7     1      -0.1407476272E-02       4    8    1        -0.7982658282E-01      0.1955343383E+00
          0                 6           1             4    7     1       0.1736766464E-04       4    6    1         0.1012556797E-02      0.2481855277E-02

    ------------------------------------------------
       NWT REQUIRED            6 OUTER ITERATIONS 
       AND A TOTAL OF         11 INNER ITERATIONS.
    ------------------------------------------------

 NO OUTPUT CONTROL FOR STRESS PERIOD   44   TIME STEP   23
 
 SOLVING FOR HEAD 
                                                   Max.-Head-Change                         Max.-Flux-Residual
  Residual-Control   Outer-Iter.   Inner-Iter.     Column Row Layer    Maximum-Head-Change  Column Row Layer    Maximum-Flux-Residual          L2-NORM 
          0                 1           2             5    8     1       0.3101028556E-01       5    8    1         0.1691531627E+01      0.4035229503E+01
          0                 2           2             4    7     1      -0.7747260542E-01       5    8    1        -0.4245277695E+01      0.1037322858E+02
          0                 3           2             4    7     1      -0.2890409853E-01       4    7    1        -0.1551538499E+01      0.3808219811E+01
          0                 4           2             4    7     1       0.3535823296E-01       4    7    1         0.1950902667E+01      0.4778943628E+01
          0                 5           2             4    7     1      -0.1407337490E-02       5    6    1        -0.7982041225E-01      0.1955239512E+00
          0                 6           1             4    7     1       0.1736595236E-04       5    6    1         0.1012598387E-02      0.2481189153E-02

    ------------------------------------------------
       NWT REQUIRED            6 OUTER ITERATIONS 
       AND A TOTAL OF         11 INNER ITERATIONS.
    ------------------------------------------------

 NO OUTPUT CONTROL FOR STRESS PERIOD   44   TIME STEP   24
 
 SOLVING FOR HEAD 
                                                   Max.-Head-Change                         Max.-Flux-Residual
  Residual-Control   Outer-Iter.   Inner-Iter.     Column Row Layer    Maximum-Head-Change  Column Row Layer    Maximum-Flux-Residual          L2-NORM 
          0                 1           2             5    8     1       0.3170980676E-01       5    8    1         0.1729355021E+01      0.4131173893E+01
          0                 2           2             4    7     1      -0.7753714184E-01       5    8    1        -0.4249148358E+01      0.1038258939E+02
          0                 3           2             4    7     1      -0.2889753060E-01       4    7    1        -0.1551184150E+01      0.3807312389E+01
          0                 4           2             4    7     1       0.3535623082E-01       5    8    1         0.1951094547E+01      0.4778964636E+01
          0                 5           2             4    7     1      -0.1421071008E-02       5    6    1        -0.8059964042E-01      0.1969315651E+00
          0                 6           1             4    7     1       0.1747815362E-04       5    6    1         0.1019152041E-02      0.2492684735E-02

    ------------------------------------------------
       NWT REQUIRED            6 OUTER ITERATIONS 
       AND A TOTAL OF         11 INNER ITERATIONS.
    ------------------------------------------------

 NO OUTPUT CONTROL FOR STRESS PERIOD   44   TIME STEP   25
 
 SOLVING FOR HEAD 
                                                   Max.-Head-Change                         Max.-Flux-Residual
  Residual-Control   Outer-Iter.   Inner-Iter.     Column Row Layer    Maximum-Head-Change  Column Row Layer    Maximum-Flux-Residual          L2-NORM 
          0                 1           2             5    8     1       0.3238273202E-01       5    8    1         0.1765713327E+01      0.4224082078E+01
          0                 2           2             4    7     1      -0.7759134579E-01       5    8    1        -0.4252332729E+01      0.1039037827E+02
          0                 3           2             4    7     1      -0.2890449521E-01       4    7    1        -0.1551556969E+01      0.3807884133E+01
          0                 4           2             4    7     1       0.3536492017E-01       4    7    1         0.1951267344E+01      0.4779800235E+01
          0                 5           2             4    7     1      -0.1407603115E-02       5    6    1        -0.7983518786E-01      0.1955569969E+00
          0                 6           1             4    7     1       0.1736923051E-04       5    6    1         0.1012785912E-02      0.2481715551E-02

    ------------------------------------------------
       NWT REQUIRED            6 OUTER ITERATIONS 
       AND A TOTAL OF         11 INNER ITERATIONS.
    ------------------------------------------------

 NO OUTPUT CONTROL FOR STRESS PERIOD   44   TIME STEP   26
 
 SOLVING FOR HEAD 
                                                   Max.-Head-Change                         Max.-Flux-Residual
  Residual-Control   Outer-Iter.   Inner-Iter.     Column Row Layer    Maximum-Head-Change  Column Row Layer    Maximum-Flux-Residual          L2-NORM 
          0                 1           2             5    8     1       0.3299436741E-01       5    8    1         0.1801098218E+01      0.4314280511E+01
          0                 2           2             4    7     1      -0.7765835160E-01       5    6    1        -0.4255307112E+01      0.1039877504E+02
          0                 3           2             4    7     1      -0.2889375045E-01       4    7    1        -0.1550978764E+01      0.3805843728E+01
          0                 4           2             4    7     1       0.3535960020E-01       4    7    1         0.1950971296E+01      0.4779026191E+01
          0                 5           2             4    7     1      -0.1407382969E-02       5    6    1        -0.7982256031E-01      0.1955243333E+00
          0                 6           1             4    7     1       0.1736651424E-04       5    6    1         0.1012625762E-02      0.2481311538E-02

    ------------------------------------------------
       NWT REQUIRED            6 OUTER ITERATIONS 
       AND A TOTAL OF         11 INNER ITERATIONS.
    ------------------------------------------------

 NO OUTPUT CONTROL FOR STRESS PERIOD   44   TIME STEP   27
 
 SOLVING FOR HEAD 
                                                   Max.-Head-Change                         Max.-Flux-Residual
  Residual-Control   Outer-Iter.   Inner-Iter.     Column Row Layer    Maximum-Head-Change  Column Row Layer    Maximum-Flux-Residual          L2-NORM 
          0                 1           2             5    8     1       0.3364340858E-01       5    8    1         0.1836218547E+01      0.4402184017E+01
          0                 2           2             4    7     1      -0.7772282229E-01       5    8    1        -0.4259182705E+01      0.1040826635E+02
          0                 3           2             4    7     1      -0.2888599932E-01       4    7    1        -0.1550561180E+01      0.3804075063E+01
          0                 4           2             4    7     1       0.3532234340E-01       4    7    1         0.1948913135E+01      0.4773943707E+01
          0                 5           2             4    7     1      -0.1405908527E-02       5    6    1        -0.7973879989E-01      0.1953290348E+00
          0                 6           1             4    7     1       0.1734832028E-04       5    6    1         0.1011563193E-02      0.2478138584E-02

    ------------------------------------------------
       NWT REQUIRED            6 OUTER ITERATIONS 
       AND A TOTAL OF         11 INNER ITERATIONS.
    ------------------------------------------------

 NO OUTPUT CONTROL FOR STRESS PERIOD   44   TIME STEP   28
 
 SOLVING FOR HEAD 
                                                   Max.-Head-Change                         Max.-Flux-Residual
  Residual-Control   Outer-Iter.   Inner-Iter.     Column Row Layer    Maximum-Head-Change  Column Row Layer    Maximum-Flux-Residual          L2-NORM 
          0                 1           2             5    8     1       0.3426278892E-01       5    8    1         0.1870004290E+01      0.4379322143E+01
          0                 2           2             4    7     1      -0.7782086969E-01       5    8    1        -0.4265117669E+01      0.1040915276E+02
          0                 3           2             4    7     1      -0.3300893802E-01       4    7    1        -0.1771852233E+01      0.4332129692E+01
          0                 4           2             4    7     1       0.2248100987E-02       4    7    1         0.1240495421E+00      0.3032957420E+00
          0                 5           1             4    7     1      -0.8947528475E-04       4    7    1        -0.5074938503E-02      0.1240953000E-01

    ------------------------------------------------
       NWT REQUIRED            5 OUTER ITERATIONS 
       AND A TOTAL OF          9 INNER ITERATIONS.
    ------------------------------------------------

 NO OUTPUT CONTROL FOR STRESS PERIOD   44   TIME STEP   29
 
 SOLVING FOR HEAD 
                                                   Max.-Head-Change                         Max.-Flux-Residual
  Residual-Control   Outer-Iter.   Inner-Iter.     Column Row Layer    Maximum-Head-Change  Column Row Layer    Maximum-Flux-Residual          L2-NORM 
          0                 1           2             5    8     1       0.3597494217E-01       5    8    1         0.1963792463E+01      0.4586434553E+01
          0                 2           2             4    7     1      -0.1163579343E+00       5    8    1        -0.6338592341E+01      0.1546654020E+02
          0                 3           2             4    7     1      -0.2334055706E+00       4    7    1        -0.1252795393E+02      0.3067753110E+02
          0                 4           2             4    7     1       0.1589601432E-01       4    7    1         0.8770769776E+00      0.2147532462E+01
          0                 5           2             4    7     1      -0.6326687438E-03       4    7    1        -0.3588166536E-01      0.8785599683E-01
          0                 6           1             4    7     1       0.7806869008E-05       4    7    1         0.4550757317E-03      0.1120961175E-02

    ------------------------------------------------
       NWT REQUIRED            6 OUTER ITERATIONS 
       AND A TOTAL OF         11 INNER ITERATIONS.
    ------------------------------------------------

 NO OUTPUT CONTROL FOR STRESS PERIOD   44   TIME STEP   30



 STREAM LISTING     PERIOD     44   STEP       30

 LAYER ROW COL. STREAM  RCH.  FLOW INTO     FLOW TO   FLOW OUT OF   OVRLND.     DIRECT     STREAM       STREAM     STREAM     STREAM   STREAMBED  STREAMBED
                SEG.NO.  NO.  STRM. RCH.    AQUIFER    STRM. RCH.    RUNOFF     PRECIP       ET          HEAD       DEPTH      WIDTH   CONDCTNC.   GRADIENT

   1    1    1     1     1    2.7749E+01  2.5751E-01   2.7492E+01  0.000E+00  0.000E+00  0.000E+00  1.09427E+03  1.218E+00  1.357E+01  6.105E-02  1.406E+00
   1    2    2     1     2    2.7492E+01  3.9832E-01   2.7093E+01  0.000E+00  0.000E+00  0.000E+00  1.08927E+03  1.213E+00  1.351E+01  9.454E-02  1.404E+00
   1    3    3     1     3    2.7093E+01  3.3923E-01   2.6754E+01  0.000E+00  0.000E+00  0.000E+00  1.08363E+03  1.208E+00  1.344E+01  8.062E-02  1.403E+00
   1    3    4     1     4    2.6754E+01  3.1200E-01   2.6442E+01  0.000E+00  0.000E+00  0.000E+00  1.07861E+03  1.203E+00  1.337E+01  7.422E-02  1.401E+00
   1    4    5     2     1    2.4442E+01  3.2655E-01   2.4116E+01  0.000E+00  0.000E+00  0.000E+00  1.07312E+03  1.187E+00  1.200E+01  7.800E-02  1.396E+00
   1    5    6     2     2    2.4116E+01  2.5068E-01   2.3865E+01  0.000E+00  0.000E+00  0.000E+00  1.06769E+03  1.178E+00  1.200E+01  6.000E-02  1.393E+00
   1    6    6     2     3    2.3865E+01  2.5024E-01   2.3615E+01  0.000E+00  0.000E+00  0.000E+00  1.06296E+03  1.171E+00  1.200E+01  6.000E-02  1.390E+00
   1    7    6     2     4    2.3615E+01  2.4979E-01   2.3365E+01  0.000E+00  0.000E+00  0.000E+00  1.05824E+03  1.163E+00  1.200E+01  6.000E-02  1.388E+00
   1    8    6     2     5    2.3365E+01  2.4935E-01   2.3115E+01  0.000E+00  0.000E+00  0.000E+00  1.05351E+03  1.156E+00  1.200E+01  6.000E-02  1.385E+00
   1    3    5     3     1    2.0000E+00  2.8252E-01   1.7175E+00  0.000E+00  0.000E+00  0.000E+00  1.07555E+03  1.909E+00  9.636E+00  7.227E-02  1.955E+00
   1    3    6     3     2    1.7175E+00  2.4905E-01   1.4684E+00  0.000E+00  0.000E+00  0.000E+00  1.07264E+03  1.727E+00  8.909E+00  6.682E-02  1.864E+00
   1    3    7     3     3    1.4684E+00  1.9718E-01   1.2712E+00  0.000E+00  0.000E+00  0.000E+00  1.06987E+03  1.555E+00  8.218E+00  5.547E-02  1.777E+00
   1    4    8     3     4    1.2712E+00  2.2567E-01   1.0456E+00  0.000E+00  0.000E+00  0.000E+00  1.06682E+03  1.364E+00  7.455E+00  6.709E-02  1.682E+00
   1    5    8     3     5    1.0456E+00  1.5790E-01   8.8768E-01  0.000E+00  0.000E+00  0.000E+00  1.06362E+03  1.164E+00  6.655E+00  4.991E-02  1.582E+00
   1    6    8     3     6    8.8768E-01  5.5980E-02   8.3170E-01  0.000E+00  0.000E+00  0.000E+00  1.06158E+03  1.036E+00  6.145E+00  1.844E-02  1.518E+00
   1    5   10     4     1    1.0000E+01  9.0919E-02   9.9091E+00  0.000E+00  0.000E+00  0.000E+00  1.07836E+03  6.368E-01  1.000E+01  2.500E-02  1.212E+00
   1    5    9     4     2    9.9091E+00  1.8158E-01   9.7275E+00  0.000E+00  0.000E+00  0.000E+00  1.07154E+03  6.315E-01  1.000E+01  5.000E-02  1.211E+00
   1    6    8     4     3    9.7275E+00  1.2689E-01   9.6006E+00  0.000E+00  0.000E+00  0.000E+00  1.06381E+03  6.256E-01  1.000E+01  3.500E-02  1.209E+00
   1    6    8     5     1    1.0432E+01  2.2686E-01   1.0205E+01  0.000E+00  0.000E+00  0.000E+00  1.05868E+03  6.790E-01  1.542E+01  6.166E-02  1.226E+00
   1    7    7     5     2    1.0205E+01  2.7894E-01   9.9265E+00  0.000E+00  0.000E+00  0.000E+00  1.05417E+03  6.732E-01  1.519E+01  7.594E-02  1.224E+00
   1    8    7     5     3    9.9265E+00  1.9221E-01   9.7343E+00  0.000E+00  0.000E+00  0.000E+00  1.04992E+03  6.676E-01  1.497E+01  5.241E-02  1.223E+00
   1    8    6     5     4    9.7343E+00  1.3577E-01   9.5985E+00  0.000E+00  0.000E+00  0.000E+00  1.04691E+03  6.637E-01  1.482E+01  3.706E-02  1.221E+00
   1    9    6     6     1    9.5985E+00  2.2097E-01   9.3776E+00  0.000E+00  0.000E+00  0.000E+00  1.04341E+03  6.828E-01  1.200E+01  6.000E-02  1.228E+00
   1   10    7     6     2    9.3776E+00  2.2039E-01   9.1572E+00  0.000E+00  0.000E+00  0.000E+00  1.03885E+03  6.732E-01  1.200E+01  6.000E-02  1.224E+00
   1   11    7     6     3    9.1572E+00  2.1981E-01   8.9374E+00  0.000E+00  0.000E+00  0.000E+00  1.03430E+03  6.636E-01  1.200E+01  6.000E-02  1.221E+00
   1   12    7     6     4    8.9374E+00  2.1923E-01   8.7181E+00  0.000E+00  0.000E+00  0.000E+00  1.02974E+03  6.539E-01  1.200E+01  6.000E-02  1.218E+00
   1   13    7     6     5    8.7181E+00 -9.3388E-02   8.8115E+00  0.000E+00  0.000E+00  0.000E+00  1.02656E+03  6.511E-01  1.200E+01  2.400E-01 -1.297E-01
   1   14    9     7     1    1.5000E+02  1.3501E+00   1.4865E+02  0.000E+00  0.000E+00  0.000E+00  1.03987E+03  2.288E+00  5.529E+01  5.593E-01  8.046E-01
   1   13    8     7     2    1.4865E+02  1.8716E+00   1.4678E+02  0.000E+00  0.000E+00  0.000E+00  1.03478E+03  2.279E+00  5.526E+01  6.148E-01  1.015E+00
   1   13    7     7     3    1.4678E+02  1.5302E+00   1.4525E+02  0.000E+00  0.000E+00  0.000E+00  1.02969E+03  2.270E+00  5.522E+01  5.584E-01  9.134E-01
   1   13    6     8     1    1.5406E+02  8.8509E-01   1.5317E+02  0.000E+00  0.000E+00  0.000E+00  1.02472E+03  2.842E+00  4.121E+01  4.200E-01  7.025E-01
   1   13    5     8     2    1.5317E+02  1.5522E-01   1.5302E+02  0.000E+00  0.000E+00  0.000E+00  1.01846E+03  2.839E+00  4.116E+01  4.194E-01  1.234E-01
   1   13    4     8     3    1.5302E+02 -2.4838E+00   1.5550E+02  0.000E+00  0.000E+00  0.000E+00  1.01222E+03  2.847E+00  4.128E+01  4.206E+00 -1.968E-01
   1   13    3     8     4    1.5550E+02 -3.6763E+00   1.5918E+02  0.000E+00  0.000E+00  0.000E+00  1.00599E+03  2.868E+00  4.158E+01  4.237E+00 -2.892E-01
   1   13    2     8     5    1.5918E+02 -2.6236E+00   1.6180E+02  0.000E+00  0.000E+00  0.000E+00  9.99764E+02  2.889E+00  4.189E+01  4.269E+00 -2.049E-01
   1   13    1     8     6    1.6180E+02 -2.0403E+00   1.6384E+02  0.000E+00  0.000E+00  0.000E+00  9.94780E+02  2.905E+00  4.212E+01  2.575E+00 -2.641E-01
   1    8    6     9     1    2.3115E+01  0.0000E+00   2.3115E+01  0.000E+00  0.000E+00  0.000E+00  1.08250E+03  3.746E+00  4.000E+00  0.000E+00  2.249E+00
   1    8    5     9     2    2.3115E+01  0.0000E+00   2.3115E+01  0.000E+00  0.000E+00  0.000E+00  1.08200E+03  3.746E+00  4.000E+00  0.000E+00  2.249E+00





UNSATURATED ZONE PACKAGE VOLUMETRIC BUDGET FOR  TIME STEP    30 STRESS PERIOD   44
  ------------------------------------------------------------------------------



     CUMULATIVE VOLUMES      L**3       RATES FOR THIS TIME STEP      L**3/T
     ------------------                 ------------------------

           IN:                                      IN:
           ---                                      ---
        INFILTRATION =  1685628112.6884          INFILTRATION =         138.6067

          OUT:                                     OUT:
          ----                                     ----
              UZF ET =  1537669250.0331                UZF ET =          60.8175
        UZF RECHARGE =       73224.0000          UZF RECHARGE =       0.0000E+00

            IN - OUT =   147885638.6553              IN - OUT =          77.7892

          STORAGE:                                 STORAGE:
          --------                                 --------
      STORAGE CHANGE =   147886992.6708        STORAGE CHANGE =          77.7892

 PERCENT DISCREPANCY IS DIFFERENCE BETWEEN IN-OUT MINUS CHANGE IN STORAGE
 DIVIDED BY THE AVERAGE OF IN AND OUT TIMES 100

 PERCENT DISCREPANCY =          -0.00     PERCENT DISCREPANCY =           0.00






1
  VOLUMETRIC BUDGET FOR AGRICULTURAL FIELDS AT  END OF TIME STEP   30, STRESS PERIOD  44
  ------------------------------------------------------------------------------

     CUMULATIVE VOLUMES      L**3       RATES FOR THIS TIME STEP      L**3/T
     ------------------                 ------------------------

           IN:                                      IN:
           ---                                      ---
               AG WELLS  =   455325696.0000                 AG WELLS  =         114.6433
      DIVERSION SEGMENTS =  1134439936.0000        DIVERSION SEGMENTS =          23.1155
       IRRIGATION PONDS  =           0.0000         IRRIGATION PONDS  =           0.0000
           GW IRRIGATION =           0.0000             GW IRRIGATION =           0.0000
           SW IRRIGATION =           0.0000             SW IRRIGATION =           0.0000
        SYSTEM LOSSES GW =           0.0000          SYSTEM LOSSES GW =           0.0000
        SYSTEM LOSSES SW =           0.0000          SYSTEM LOSSES SW =           0.0000

                TOTAL IN =  1589765632.0000                  TOTAL IN =         137.7588

          OUT:                                     OUT:
          ----                                     ----
               AG WELLS  =           0.0000                 AG WELLS  =           0.0000
      DIVERSION SEGMENTS =           0.0000        DIVERSION SEGMENTS =           0.0000
       IRRIGATION PONDS  =           0.0000         IRRIGATION PONDS  =           0.0000
           GW IRRIGATION =   455325696.0000             GW IRRIGATION =         114.6433
           SW IRRIGATION =  1134461056.0000             SW IRRIGATION =          23.1159
        SYSTEM LOSSES GW =           0.0000          SYSTEM LOSSES GW =           0.0000
        SYSTEM LOSSES SW =           0.0000          SYSTEM LOSSES SW =           0.0000

               TOTAL OUT =  1589786752.0000                 TOTAL OUT =         137.7592

                IN - OUT =      -21120.0000                  IN - OUT =      -4.7302E-04

     PERCENT DISCREPANCY =          -0.00         PERCENT DISCREPANCY =          -0.00



1
  VOLUMETRIC BUDGET FOR ENTIRE MODEL AT END OF TIME STEP   30, STRESS PERIOD  44
  ------------------------------------------------------------------------------

     CUMULATIVE VOLUMES      L**3       RATES FOR THIS TIME STEP      L**3/T
     ------------------                 ------------------------

           IN:                                      IN:
           ---                                      ---
             STORAGE     =   755856704.0000               STORAGE     =         114.1325
       CONSTANT HEAD     =           0.0000         CONSTANT HEAD     =           0.0000
     HEAD DEP BOUNDS     =    32366240.0000       HEAD DEP BOUNDS     =           0.2867
      STREAM LEAKAGE     =  1361769472.0000        STREAM LEAKAGE     =          11.7077
        UZF RECHARGE     =       73223.9531          UZF RECHARGE     =           0.0000
               GW ET     =           0.0000                 GW ET     =           0.0000
     SURFACE LEAKAGE     =           0.0000       SURFACE LEAKAGE     =           0.0000
           AG WELLS      =           0.0000             AG WELLS      =           0.0000

                TOTAL IN =  2150065664.0000                  TOTAL IN =         126.1269

          OUT:                                     OUT:
          ----                                     ----
             STORAGE     =   447305088.0000               STORAGE     =           0.2785
       CONSTANT HEAD     =           0.0000         CONSTANT HEAD     =           0.0000
     HEAD DEP BOUNDS     =    32913944.0000       HEAD DEP BOUNDS     =           0.2877
      STREAM LEAKAGE     =  1211186560.0000        STREAM LEAKAGE     =          10.9173
        UZF RECHARGE     =           0.0000          UZF RECHARGE     =           0.0000
               GW ET     =     3343843.5000                 GW ET     =           0.0000
     SURFACE LEAKAGE     =           0.0000       SURFACE LEAKAGE     =           0.0000
           AG WELLS      =   455325696.0000             AG WELLS      =         114.6433

               TOTAL OUT =  2150075136.0000                 TOTAL OUT =         126.1269

                IN - OUT =       -9472.0000                  IN - OUT =       3.8147E-05

     PERCENT DISCREPANCY =          -0.00         PERCENT DISCREPANCY =           0.00






         TIME SUMMARY AT END OF TIME STEP   30 IN STRESS PERIOD   44
                    SECONDS     MINUTES      HOURS       DAYS        YEARS
                    -----------------------------------------------------------
   TIME STEP LENGTH  87667.      1461.1      24.352      1.0147     2.77799E-03
 STRESS PERIOD TIME 2.63000E+06  43833.      730.56      30.440     8.33397E-02
         TOTAL TIME 1.13175E+08 1.88626E+06  31438.      1309.9      3.5863    
1
1
                            STRESS PERIOD NO.   45, LENGTH =   2630000.    
                            -----------------------------------------------

                              NUMBER OF TIME STEPS =    30

                               MULTIPLIER FOR DELT =     1.000

                            INITIAL TIME STEP SIZE =   87666.66    

 REUSING NON-PARAMETER GHB CELLS FROM LAST STRESS PERIOD

      2 GHB CELLS

 REUSING STREAM SEGMENT DATA FROM LAST STRESS PERIOD



            AREAL INFILTRATION RATE
 READING ON UNIT   19 WITH FORMAT: (FREE)              

            1           2           3           4           5           6           7           8           9          10
 ........................................................................................................................
   1   1.0000E-10  2.0000E-10   0.000       0.000       0.000       0.000       0.000       0.000       0.000       0.000    
   2   2.0000E-10  1.0000E-10  2.0000E-10   0.000       0.000      8.0000E-10  8.0000E-10  5.0000E-10   0.000       0.000    
   3    0.000      5.0000E-10  1.0000E-10  1.0000E-10  8.0000E-10  8.0000E-10  5.0000E-10  5.0000E-10   0.000       0.000    
   4   8.0000E-10  5.0000E-10  1.0000E-10  1.0000E-10  1.0000E-10  1.0000E-10  1.0000E-10  1.0000E-10  2.0000E-10   0.000    
   5   8.0000E-10  5.0000E-10  1.0000E-10  1.0000E-10  1.0000E-10  1.0000E-10  1.0000E-10  1.0000E-10  1.0000E-10  1.0000E-10
   6   8.0000E-10  5.0000E-10  5.0000E-10  2.0000E-10  2.0000E-10  1.0000E-10  1.0000E-10  1.0000E-10  1.0000E-10  5.0000E-10
   7   8.0000E-10  5.0000E-10  5.0000E-10  2.0000E-10  2.0000E-10  1.0000E-10  1.0000E-10  2.0000E-10  2.0000E-10   0.000    
   8    0.000      5.0000E-10  5.0000E-10  2.0000E-10  2.0000E-10  1.0000E-10  1.0000E-10  2.0000E-10  5.0000E-10   0.000    
   9    0.000      5.0000E-10  5.0000E-10  2.0000E-10  2.0000E-10  1.0000E-10  1.0000E-10  2.0000E-10  5.0000E-10   0.000    
  10    0.000      5.0000E-10  5.0000E-10  2.0000E-10  2.0000E-10  1.0000E-10  1.0000E-10  2.0000E-10  5.0000E-10  8.0000E-10
  11    0.000      1.0000E-10  1.0000E-10  1.0000E-10  1.0000E-10  1.0000E-10  1.0000E-10  2.0000E-10  5.0000E-10   0.000    
  12   1.0000E-10  1.0000E-10  1.0000E-10  1.0000E-10  1.0000E-10  1.0000E-10  1.0000E-10  1.0000E-10  2.0000E-10   0.000    
  13   1.0000E-10  1.0000E-10  2.0000E-10  2.0000E-10  2.0000E-10  2.0000E-10  2.0000E-10  1.0000E-10  1.0000E-10   0.000    
  14    0.000      2.0000E-10  5.0000E-10  5.0000E-10  5.0000E-10  5.0000E-10  5.0000E-10  2.0000E-10  1.0000E-10   0.000    
  15    0.000       0.000      8.0000E-10  8.0000E-10  8.0000E-10  8.0000E-10   0.000       0.000       0.000       0.000    

                  ET RATE =  3.250000E-07

 USING ET EXTINCTION DEPTH FROM PREVIOUS STRESS PERIOD. CURRENT PERIOD IS:      45

 USING EXTINCTION WATER CONTENT FROM PREVIOUS STRESS PERIOD. CURRENT PERIOD IS:      45

 USING AIR ENTRY PRESSURE FROM PREVIOUS STRESS PERIOD. CURRENT PERIOD IS:      45

 USING ROOT PRESSURE HEAD FROM PREVIOUS STRESS PERIOD. CURRENT PERIOD IS:      45

 USING ROOT ACTIVITY FROM PREVIOUS STRESS PERIOD. CURRENT PERIOD IS:      45

 PROCESSING AG STRESS PERIOD DATA

 READING AG STRESS PERIOD DATA

 READING IRRIGATION SEGMENT

 READING IRRIGATION WELL

 READING SUPPLEMENTAL WELL

 NO IRRPOND OR REUSING IRRPOND DATA FROM LAST STRESS PERIOD

 END PROCESSING AG STRESS PERIOD DATA OPTIONS
 
 SOLVING FOR HEAD 
                                                   Max.-Head-Change                         Max.-Flux-Residual
  Residual-Control   Outer-Iter.   Inner-Iter.     Column Row Layer    Maximum-Head-Change  Column Row Layer    Maximum-Flux-Residual          L2-NORM 
          0                 1           2             5    8     1       0.4460974582E-01       5    8    1         0.2439617738E+01      0.5511675054E+01
          0                 2           2             5    7     1      -0.8347626127E-01       5    8    1        -0.4597605189E+01      0.1113241834E+02
          0                 3           2             5    7     1       0.5684351558E-02       5    8    1         0.3218283124E+00      0.7792592430E+00
          0                 4           2             5    7     1      -0.2261858065E-03       5    8    1        -0.1316280470E-01      0.3187176669E-01
          0                 5           1             5    7     1       0.2788972490E-05       5    8    1         0.1668132973E-03      0.4039140316E-03

    ------------------------------------------------
       NWT REQUIRED            5 OUTER ITERATIONS 
       AND A TOTAL OF          9 INNER ITERATIONS.
    ------------------------------------------------

 NO OUTPUT CONTROL FOR STRESS PERIOD   45   TIME STEP    1
 
 SOLVING FOR HEAD 
                                                   Max.-Head-Change                         Max.-Flux-Residual
  Residual-Control   Outer-Iter.   Inner-Iter.     Column Row Layer    Maximum-Head-Change  Column Row Layer    Maximum-Flux-Residual          L2-NORM 
          0                 1           2             5    8     1       0.4478474522E-01       5    8    1         0.2448125472E+01      0.5617091266E+01
          0                 2           2             5    8     1      -0.5720684938E-02       5    8    1        -0.3199420848E+00      0.7299635353E+00
          0                 3           2             4    7     1      -0.5235418600E-01       4    7    1        -0.2810225113E+01      0.6904490000E+01
          0                 4           2             4    7     1       0.5354553316E-01       4    7    1         0.2954355723E+01      0.7235965452E+01
          0                 5           2             4    7     1      -0.1321838928E-01       5    8    1        -0.7496598241E+00      0.1844673753E+01
          0                 6           2             4    7     1       0.7818617583E-03       5    8    1         0.4558224843E-01      0.1116971879E+00
          0                 7           2             4    7     1      -0.4597921015E-02       5    8    1        -0.2754292674E+00      0.6746609694E+00
          0                 8           2             4    7     1      -0.1896985126E-03       4    7    1        -0.1136311727E-01      0.2783131998E-01
          0                 9           1             4    7     1      -0.7824574970E-05       4    7    1        -0.4686765701E-03      0.1147989887E-02

    ------------------------------------------------
       NWT REQUIRED            9 OUTER ITERATIONS 
       AND A TOTAL OF         17 INNER ITERATIONS.
    ------------------------------------------------

 NO OUTPUT CONTROL FOR STRESS PERIOD   45   TIME STEP    2
 
 SOLVING FOR HEAD 
                                                   Max.-Head-Change                         Max.-Flux-Residual
  Residual-Control   Outer-Iter.   Inner-Iter.     Column Row Layer    Maximum-Head-Change  Column Row Layer    Maximum-Flux-Residual          L2-NORM 
          0                 1           2             5    8     1       0.4316099475E-01       5    8    1         0.2357424603E+01      0.5463438033E+01
          0                 2           2             5    6     1      -0.4945578781E-01       5    8    1        -0.2726102847E+01      0.6601683087E+01
          0                 3           2             4    7     1      -0.2254762098E-01       4    7    1        -0.1210374959E+01      0.2966526926E+01
          0                 4           2             4    7     1       0.2486736246E-01       4    7    1         0.1372051816E+01      0.3360072497E+01
          0                 5           2             4    7     1      -0.1429943555E-01       4    7    1        -0.8109544712E+00      0.1986413301E+01
          0                 6           2             4    7     1      -0.1181957602E-02       4    7    1        -0.6702992501E-01      0.1641797744E+00
          0                 7           2             4    7     1      -0.1335744200E-01       4    7    1        -0.7575147636E+00      0.1855523452E+01
          0                 8           2             4    7     1       0.1650841718E-03       5    8    1         0.9632037133E-02      0.2359713550E-01
          0                 9           1             4    7     1       0.2423221857E-05       5    8    1         0.1413844116E-03      0.3463729921E-03

    ------------------------------------------------
       NWT REQUIRED            9 OUTER ITERATIONS 
       AND A TOTAL OF         17 INNER ITERATIONS.
    ------------------------------------------------

 NO OUTPUT CONTROL FOR STRESS PERIOD   45   TIME STEP    3
 
 SOLVING FOR HEAD 
                                                   Max.-Head-Change                         Max.-Flux-Residual
  Residual-Control   Outer-Iter.   Inner-Iter.     Column Row Layer    Maximum-Head-Change  Column Row Layer    Maximum-Flux-Residual          L2-NORM 
          0                 1           2             5    8     1       0.4336692900E-01       5    8    1         0.2367832531E+01      0.5510850315E+01
          0                 2           2             5    6     1      -0.5042880532E-01       5    8    1        -0.2779381369E+01      0.6735717675E+01
          0                 3           2             4    7     1      -0.2123572706E-01       4    7    1        -0.1139955033E+01      0.2793867739E+01
          0                 4           2             4    7     1       0.2399761216E-01       4    7    1         0.1324061607E+01      0.3242534004E+01
          0                 5           2             4    7     1      -0.1443957098E-01       4    7    1        -0.8189005312E+00      0.2005876975E+01
          0                 6           2             4    7     1      -0.1202850731E-02       4    7    1        -0.6821469400E-01      0.1670817229E+00
          0                 7           2             4    7     1      -0.1396065481E-02       4    7    1        -0.7917216406E-01      0.1939302095E+00
          0                 8           2             4    7     1      -0.1390737999E-01       4    7    1        -0.7886933108E+00      0.1931894963E+01
          0                 9           2             4    7     1       0.1720160995E-03       5    8    1         0.1003636641E-01      0.2458766875E-01
          0                10           1             4    7     1       0.2523305285E-05       5    8    1         0.1472220115E-03      0.3606728862E-03

    ------------------------------------------------
       NWT REQUIRED           10 OUTER ITERATIONS 
       AND A TOTAL OF         19 INNER ITERATIONS.
    ------------------------------------------------

 NO OUTPUT CONTROL FOR STRESS PERIOD   45   TIME STEP    4
 
 SOLVING FOR HEAD 
                                                   Max.-Head-Change                         Max.-Flux-Residual
  Residual-Control   Outer-Iter.   Inner-Iter.     Column Row Layer    Maximum-Head-Change  Column Row Layer    Maximum-Flux-Residual          L2-NORM 
          0                 1           2             5    8     1       0.4365937260E-01       5    8    1         0.2383048916E+01      0.5566981377E+01
          0                 2           2             5    6     1      -0.4992752621E-01       5    8    1        -0.2751656411E+01      0.6670065130E+01
          0                 3           2             4    7     1      -0.2203828158E-01       4    7    1        -0.1183025919E+01      0.2899755516E+01
          0                 4           2             4    7     1       0.2455802916E-01       4    7    1         0.1354979890E+01      0.3318284367E+01
          0                 5           2             4    7     1      -0.1502243990E-01       4    7    1        -0.8519549737E+00      0.2086844565E+01
          0                 6           2             4    7     1      -0.1312287303E-01       4    7    1        -0.7442163814E+00      0.1822938432E+01
          0                 7           2             4    7     1       0.1620574842E-03       5    8    1         0.9455657605E-02      0.2316530051E-01
          0                 8           1             4    7     1       0.2380366196E-05       5    8    1         0.1388871278E-03      0.3402582770E-03

    ------------------------------------------------
       NWT REQUIRED            8 OUTER ITERATIONS 
       AND A TOTAL OF         15 INNER ITERATIONS.
    ------------------------------------------------

 NO OUTPUT CONTROL FOR STRESS PERIOD   45   TIME STEP    5
 
 SOLVING FOR HEAD 
                                                   Max.-Head-Change                         Max.-Flux-Residual
  Residual-Control   Outer-Iter.   Inner-Iter.     Column Row Layer    Maximum-Head-Change  Column Row Layer    Maximum-Flux-Residual          L2-NORM 
          0                 1           2             5    8     1       0.4385494870E-01       5    8    1         0.2392945948E+01      0.5611652493E+01
          0                 2           2             5    6     1      -0.5114873383E-01       5    8    1        -0.2818605787E+01      0.6837506785E+01
          0                 3           2             4    7     1      -0.2038012133E-01       4    7    1        -0.1094020954E+01      0.2681468014E+01
          0                 4           2             4    7     1       0.2323068286E-01       4    7    1         0.1281742479E+01      0.3138902312E+01
          0                 5           2             4    7     1      -0.1505663001E-01       4    7    1        -0.8538925856E+00      0.2091590188E+01
          0                 6           2             4    7     1      -0.1311918455E-01       4    7    1        -0.7440060758E+00      0.1822423237E+01
          0                 7           2             4    7     1       0.1620119344E-03       5    8    1         0.9452985857E-02      0.2315875612E-01
          0                 8           1             4    7     1       0.2379697223E-05       5    8    1         0.1388478904E-03      0.3401949241E-03

    ------------------------------------------------
       NWT REQUIRED            8 OUTER ITERATIONS 
       AND A TOTAL OF         15 INNER ITERATIONS.
    ------------------------------------------------

 NO OUTPUT CONTROL FOR STRESS PERIOD   45   TIME STEP    6
 
 SOLVING FOR HEAD 
                                                   Max.-Head-Change                         Max.-Flux-Residual
  Residual-Control   Outer-Iter.   Inner-Iter.     Column Row Layer    Maximum-Head-Change  Column Row Layer    Maximum-Flux-Residual          L2-NORM 
          0                 1           2             5    8     1       0.4408388436E-01       5    8    1         0.2404713779E+01      0.5659183662E+01
          0                 2           2             5    6     1      -0.5184127308E-01       5    8    1        -0.2856518082E+01      0.6933279674E+01
          0                 3           2             4    7     1      -0.1948850744E-01       4    7    1        -0.1046159692E+01      0.2564155384E+01
          0                 4           2             4    7     1       0.2230248950E-01       4    7    1         0.1230528200E+01      0.3013466422E+01
          0                 5           2             4    7     1      -0.1493899941E-01       4    7    1        -0.8472201943E+00      0.2075246017E+01
          0                 6           2             4    7     1      -0.1306424814E-01       4    7    1        -0.7408894562E+00      0.1814789189E+01
          0                 7           2             4    7     1      -0.9921808031E-03       4    7    1        -0.5626650981E-01      0.1378152102E+00
          0                 8           1             4    7     1       0.1226240257E-04       5    8    1         0.7156001898E-03      0.1753415298E-02

    ------------------------------------------------
       NWT REQUIRED            8 OUTER ITERATIONS 
       AND A TOTAL OF         15 INNER ITERATIONS.
    ------------------------------------------------

 NO OUTPUT CONTROL FOR STRESS PERIOD   45   TIME STEP    7
 
 SOLVING FOR HEAD 
                                                   Max.-Head-Change                         Max.-Flux-Residual
  Residual-Control   Outer-Iter.   Inner-Iter.     Column Row Layer    Maximum-Head-Change  Column Row Layer    Maximum-Flux-Residual          L2-NORM 
          0                 1           2             5    8     1       0.4436714599E-01       5    8    1         0.2419506303E+01      0.5711986439E+01
          0                 2           2             5    6     1      -0.5159982579E-01       5    8    1        -0.2843114505E+01      0.6902521115E+01
          0                 3           2             4    7     1      -0.1990644564E-01       4    7    1        -0.1068587010E+01      0.2619363446E+01
          0                 4           2             4    7     1       0.2267498429E-01       4    7    1         0.1251078155E+01      0.3063817747E+01
          0                 5           2             4    7     1      -0.1416588664E-01       4    7    1        -0.8033743598E+00      0.1967847019E+01
          0                 6           2             4    7     1      -0.1226589533E-02       4    7    1        -0.6956055461E-01      0.1703784597E+00
          0                 7           2             4    7     1      -0.1345213286E-01       4    7    1        -0.7628790073E+00      0.1868663076E+01
          0                 8           2             4    7     1       0.1662544452E-03       5    8    1         0.9700243720E-02      0.2376421396E-01
          0                 9           1             4    7     1       0.2440400227E-05       5    8    1         0.1423855888E-03      0.3488249394E-03

    ------------------------------------------------
       NWT REQUIRED            9 OUTER ITERATIONS 
       AND A TOTAL OF         17 INNER ITERATIONS.
    ------------------------------------------------

 NO OUTPUT CONTROL FOR STRESS PERIOD   45   TIME STEP    8
 
 SOLVING FOR HEAD 
                                                   Max.-Head-Change                         Max.-Flux-Residual
  Residual-Control   Outer-Iter.   Inner-Iter.     Column Row Layer    Maximum-Head-Change  Column Row Layer    Maximum-Flux-Residual          L2-NORM 
          0                 1           2             5    8     1       0.4463224024E-01       5    8    1         0.2433317481E+01      0.5762133771E+01
          0                 2           2             5    6     1      -0.5165018366E-01       5    8    1        -0.2845758501E+01      0.6911204930E+01
          0                 3           2             4    7     1      -0.1991497056E-01       4    7    1        -0.1069039673E+01      0.2620630510E+01
          0                 4           2             4    7     1       0.2280563912E-01       4    7    1         0.1258284826E+01      0.3081483785E+01
          0                 5           2             4    7     1      -0.1478922287E-01       4    7    1        -0.8387236384E+00      0.2054435368E+01
          0                 6           2             4    7     1      -0.1209718850E-02       4    7    1        -0.6860366120E-01      0.1680342408E+00
          0                 7           2             4    7     1      -0.1402030207E-02       4    7    1        -0.7950983363E-01      0.1947573180E+00
          0                 8           2             4    7     1      -0.1407451078E-02       4    7    1        -0.7981646455E-01      0.1955084110E+00
          0                 9           2             4    7     1      -0.1397886344E-01       4    7    1        -0.7927333905E+00      0.1941791087E+01
          0                10           2             4    7     1       0.1730362541E-03       5    8    1         0.1009570328E-01      0.2473300178E-01
          0                11           1             4    7     1       0.2536591221E-05       5    8    1         0.1479944772E-03      0.3625653641E-03

    ------------------------------------------------
       NWT REQUIRED           11 OUTER ITERATIONS 
       AND A TOTAL OF         21 INNER ITERATIONS.
    ------------------------------------------------

 NO OUTPUT CONTROL FOR STRESS PERIOD   45   TIME STEP    9
 
 SOLVING FOR HEAD 
                                                   Max.-Head-Change                         Max.-Flux-Residual
  Residual-Control   Outer-Iter.   Inner-Iter.     Column Row Layer    Maximum-Head-Change  Column Row Layer    Maximum-Flux-Residual          L2-NORM 
          0                 1           2             5    8     1       0.4501544821E-01       5    8    1         0.2453668706E+01      0.5824641914E+01
          0                 2           2             5    6     1      -0.4954119002E-01       5    8    1        -0.2729741582E+01      0.6627515683E+01
          0                 3           2             4    7     1      -0.2302180266E-01       4    7    1        -0.1235789145E+01      0.3030058604E+01
          0                 4           2             4    7     1       0.2510506537E-01       4    7    1         0.1385150804E+01      0.3392259065E+01
          0                 5           2             4    7     1      -0.1379110919E-01       4    7    1        -0.7821179146E+00      0.1915782806E+01
          0                 6           2             4    7     1      -0.1209809144E-02       4    7    1        -0.6860874294E-01      0.1680472539E+00
          0                 7           2             4    7     1      -0.1378513171E-02       4    7    1        -0.7817605723E-01      0.1914902594E+00
          0                 8           2             4    7     1      -0.1369626978E-01       4    7    1        -0.7767142256E+00      0.1902552332E+01
          0                 9           2             4    7     1       0.1694049597E-03       5    8    1         0.9883927863E-02      0.2421419675E-01
          0                10           1             4    7     1       0.2485002289E-05       5    8    1         0.1449859024E-03      0.3551948303E-03

    ------------------------------------------------
       NWT REQUIRED           10 OUTER ITERATIONS 
       AND A TOTAL OF         19 INNER ITERATIONS.
    ------------------------------------------------

 NO OUTPUT CONTROL FOR STRESS PERIOD   45   TIME STEP   10
 
 SOLVING FOR HEAD 
                                                   Max.-Head-Change                         Max.-Flux-Residual
  Residual-Control   Outer-Iter.   Inner-Iter.     Column Row Layer    Maximum-Head-Change  Column Row Layer    Maximum-Flux-Residual          L2-NORM 
          0                 1           2             5    8     1       0.4526325413E-01       5    8    1         0.2466561404E+01      0.5871850572E+01
          0                 2           2             5    6     1      -0.4973232847E-01       5    8    1        -0.2740132935E+01      0.6655165374E+01
          0                 3           2             4    7     1      -0.2282451867E-01       4    7    1        -0.1225195197E+01      0.3004210568E+01
          0                 4           2             4    7     1       0.2485486730E-01       4    7    1         0.1371344262E+01      0.3358453316E+01
          0                 5           2             4    7     1      -0.1484128585E-01       4    7    1        -0.8416738949E+00      0.2061664845E+01
          0                 6           2             4    7     1      -0.1218307418E-02       4    7    1        -0.6909052787E-01      0.1692267762E+00
          0                 7           2             4    7     1      -0.1370876192E-01       4    7    1        -0.7774292212E+00      0.1904303674E+01
          0                 8           2             4    7     1       0.1694260942E-03       5    8    1         0.9885252109E-02      0.2421745494E-01
          0                 9           1             4    7     1       0.2486955749E-05       5    8    1         0.1451012349E-03      0.3554772545E-03

    ------------------------------------------------
       NWT REQUIRED            9 OUTER ITERATIONS 
       AND A TOTAL OF         17 INNER ITERATIONS.
    ------------------------------------------------

 NO OUTPUT CONTROL FOR STRESS PERIOD   45   TIME STEP   11
 
 SOLVING FOR HEAD 
                                                   Max.-Head-Change                         Max.-Flux-Residual
  Residual-Control   Outer-Iter.   Inner-Iter.     Column Row Layer    Maximum-Head-Change  Column Row Layer    Maximum-Flux-Residual          L2-NORM 
          0                 1           2             5    8     1       0.4550788234E-01       5    8    1         0.2479298241E+01      0.5918102846E+01
          0                 2           2             5    6     1      -0.4996369022E-01       5    8    1        -0.2752743637E+01      0.6688196334E+01
          0                 3           2             4    7     1      -0.2256806052E-01       4    7    1        -0.1211425290E+01      0.2970563342E+01
          0                 4           2             4    7     1       0.2457213939E-01       4    7    1         0.1355742998E+01      0.3320250989E+01
          0                 5           2             4    7     1      -0.2214840600E-02       4    7    1        -0.1256087083E+00      0.3076746880E+00
          0                 6           2             4    7     1      -0.1320990899E-02       4    7    1        -0.7491444894E-01      0.1835009828E+00
          0                 7           2             4    7     1      -0.1346371513E-01       4    7    1        -0.7635315677E+00      0.1870261585E+01
          0                 8           2             4    7     1      -0.1246810336E-02       4    7    1        -0.7070552118E-01      0.1731828234E+00
          0                 9           2             4    7     1      -0.1402080916E-01       4    7    1        -0.7951086961E+00      0.1947609360E+01
          0                10           2             4    7     1       0.1735554720E-03       5    8    1         0.1012595256E-01      0.2480710594E-01
          0                11           1             4    7     1       0.2544202516E-05       5    8    1         0.1484379231E-03      0.3636512375E-03

    ------------------------------------------------
       NWT REQUIRED           11 OUTER ITERATIONS 
       AND A TOTAL OF         21 INNER ITERATIONS.
    ------------------------------------------------

 NO OUTPUT CONTROL FOR STRESS PERIOD   45   TIME STEP   12
 
 SOLVING FOR HEAD 
                                                   Max.-Head-Change                         Max.-Flux-Residual
  Residual-Control   Outer-Iter.   Inner-Iter.     Column Row Layer    Maximum-Head-Change  Column Row Layer    Maximum-Flux-Residual          L2-NORM 
          0                 1           2             5    8     1       0.4583663546E-01       5    8    1         0.2496696736E+01      0.5972994476E+01
          0                 2           2             5    6     1      -0.4864408660E-01       5    8    1        -0.2680127377E+01      0.6511230266E+01
          0                 3           2             4    7     1      -0.2459665648E-01       4    7    1        -0.1320301640E+01      0.3237921834E+01
          0                 4           2             4    7     1       0.2617880169E-01       4    7    1         0.1444386122E+01      0.3537397115E+01
          0                 5           2             4    7     1      -0.1464020174E-01       4    7    1        -0.8302678361E+00      0.2033728038E+01
          0                 6           2             4    7     1      -0.1177353245E-02       4    7    1        -0.6676780301E-01      0.1635374716E+00
          0                 7           2             4    7     1      -0.1404996804E-02       4    7    1        -0.7967761905E-01      0.1951683365E+00
          0                 8           2             4    7     1      -0.5887858256E-02       4    7    1        -0.3338984434E+00      0.8178795955E+00
          0                 9           1             4    7     1       0.7282538975E-04       5    8    1         0.4248982006E-02      0.1040941251E-01

    ------------------------------------------------
       NWT REQUIRED            9 OUTER ITERATIONS 
       AND A TOTAL OF         17 INNER ITERATIONS.
    ------------------------------------------------

 NO OUTPUT CONTROL FOR STRESS PERIOD   45   TIME STEP   13
 
 SOLVING FOR HEAD 
                                                   Max.-Head-Change                         Max.-Flux-Residual
  Residual-Control   Outer-Iter.   Inner-Iter.     Column Row Layer    Maximum-Head-Change  Column Row Layer    Maximum-Flux-Residual          L2-NORM 
          0                 1           2             5    8     1       0.4584858281E-01       5    8    1         0.2496623811E+01      0.5992882370E+01
          0                 2           2             5    6     1      -0.5306143264E-01       5    8    1        -0.2922796817E+01      0.7110800163E+01
          0                 3           2             4    7     1      -0.1832257265E-01       4    7    1        -0.9835470642E+00      0.2411521830E+01
          0                 4           2             4    7     1       0.2121150325E-01       4    7    1         0.1170320904E+01      0.2866080119E+01
          0                 5           2             4    7     1      -0.1501325541E-01       4    7    1        -0.8514227587E+00      0.2085543024E+01
          0                 6           2             4    7     1      -0.1325943482E-01       4    7    1        -0.7519512260E+00      0.1841884756E+01
          0                 7           2             4    7     1       0.1637439076E-03       5    8    1         0.9553927661E-02      0.2340602838E-01
          0                 8           1             4    7     1       0.2405136873E-05       5    8    1         0.1403305314E-03      0.3437938439E-03

    ------------------------------------------------
       NWT REQUIRED            8 OUTER ITERATIONS 
       AND A TOTAL OF         15 INNER ITERATIONS.
    ------------------------------------------------

 NO OUTPUT CONTROL FOR STRESS PERIOD   45   TIME STEP   14
 
 SOLVING FOR HEAD 
                                                   Max.-Head-Change                         Max.-Flux-Residual
  Residual-Control   Outer-Iter.   Inner-Iter.     Column Row Layer    Maximum-Head-Change  Column Row Layer    Maximum-Flux-Residual          L2-NORM 
          0                 1           2             5    8     1       0.4612985287E-01       5    8    1         0.2511442506E+01      0.6041271306E+01
          0                 2           2             5    6     1      -0.5273520653E-01       5    8    1        -0.2904795095E+01      0.7068121191E+01
          0                 3           2             4    7     1      -0.1884870337E-01       4    7    1        -0.1011781809E+01      0.2480958222E+01
          0                 4           2             4    7     1       0.2163410770E-01       4    7    1         0.1193635637E+01      0.2923201820E+01
          0                 5           2             4    7     1      -0.1479942078E-01       4    7    1        -0.8392948005E+00      0.2055836566E+01
          0                 6           2             4    7     1      -0.1364759486E-01       4    7    1        -0.7739630265E+00      0.1895802607E+01
          0                 7           2             4    7     1       0.1685373559E-03       5    8    1         0.9833589590E-02      0.2409115502E-01
          0                 8           1             4    7     1       0.2475545186E-05       5    8    1         0.1444382860E-03      0.3538574325E-03

    ------------------------------------------------
       NWT REQUIRED            8 OUTER ITERATIONS 
       AND A TOTAL OF         15 INNER ITERATIONS.
    ------------------------------------------------

 NO OUTPUT CONTROL FOR STRESS PERIOD   45   TIME STEP   15
 
 SOLVING FOR HEAD 
                                                   Max.-Head-Change                         Max.-Flux-Residual
  Residual-Control   Outer-Iter.   Inner-Iter.     Column Row Layer    Maximum-Head-Change  Column Row Layer    Maximum-Flux-Residual          L2-NORM 
          0                 1           2             5    8     1       0.4640442004E-01       5    8    1         0.2525904288E+01      0.6088504489E+01
          0                 2           2             5    7     1      -0.5244065395E-01       5    8    1        -0.2888268302E+01      0.7029037407E+01
          0                 3           2             4    7     1      -0.1934060235E-01       4    7    1        -0.1038179219E+01      0.2545881928E+01
          0                 4           2             4    7     1       0.2202638828E-01       4    7    1         0.1215277262E+01      0.2976225032E+01
          0                 5           2             4    7     1      -0.1457669334E-01       4    7    1        -0.8266625646E+00      0.2024894854E+01
          0                 6           2             4    7     1      -0.1222088953E-02       4    7    1        -0.6930452047E-01      0.1697510304E+00
          0                 7           2             4    7     1      -0.1408685160E-02       4    7    1        -0.7988646042E-01      0.1956798545E+00
          0                 8           2             4    7     1      -0.1411954119E-01       4    7    1        -0.8007112620E+00      0.1961332800E+01
          0                 9           2             4    7     1       0.1746402378E-03       5    8    1         0.1018929378E-01      0.2496229367E-01
          0                10           1             4    7     1       0.2561798491E-05       5    8    1         0.1494652747E-03      0.3661685075E-03

    ------------------------------------------------
       NWT REQUIRED           10 OUTER ITERATIONS 
       AND A TOTAL OF         19 INNER ITERATIONS.
    ------------------------------------------------

 NO OUTPUT CONTROL FOR STRESS PERIOD   45   TIME STEP   16
 
 SOLVING FOR HEAD 
                                                   Max.-Head-Change                         Max.-Flux-Residual
  Residual-Control   Outer-Iter.   Inner-Iter.     Column Row Layer    Maximum-Head-Change  Column Row Layer    Maximum-Flux-Residual          L2-NORM 
          0                 1           2             5    8     1       0.4675724797E-01       5    8    1         0.2544697796E+01      0.6143818430E+01
          0                 2           2             5    6     1      -0.5059751990E-01       5    8    1        -0.2787176545E+01      0.6781620146E+01
          0                 3           2             4    7     1      -0.2204043866E-01       4    7    1        -0.1183083013E+01      0.2901674445E+01
          0                 4           2             4    7     1       0.2405944798E-01       4    7    1         0.1327445947E+01      0.3250996792E+01
          0                 5           2             4    7     1      -0.2201640949E-02       4    7    1        -0.1248592188E+00      0.3058406989E+00
          0                 6           2             4    7     1      -0.1368926432E-02       4    7    1        -0.7763238929E-01      0.1901585218E+00
          0                 7           2             4    7     1      -0.1266025941E-01       4    7    1        -0.7179624568E+00      0.1758640476E+01
          0                 8           2             4    7     1      -0.1234108613E-02       4    7    1        -0.6998478205E-01      0.1714178646E+00
          0                 9           2             4    7     1      -0.6236201468E-02       4    7    1        -0.3536474759E+00      0.8662546527E+00
          0                10           1             4    7     1       0.7719461694E-04       5    8    1         0.4503830021E-02      0.1103374459E-01

    ------------------------------------------------
       NWT REQUIRED           10 OUTER ITERATIONS 
       AND A TOTAL OF         19 INNER ITERATIONS.
    ------------------------------------------------

 NO OUTPUT CONTROL FOR STRESS PERIOD   45   TIME STEP   17
 
 SOLVING FOR HEAD 
                                                   Max.-Head-Change                         Max.-Flux-Residual
  Residual-Control   Outer-Iter.   Inner-Iter.     Column Row Layer    Maximum-Head-Change  Column Row Layer    Maximum-Flux-Residual          L2-NORM 
          0                 1           2             5    8     1       0.4682928555E-01       5    8    1         0.2548003176E+01      0.6168412086E+01
          0                 2           2             5    7     1      -0.5382851411E-01       5    8    1        -0.2961588879E+01      0.7212823780E+01
          0                 3           2             4    7     1      -0.1762540806E-01       4    7    1        -0.9461113968E+00      0.2320145273E+01
          0                 4           2             4    7     1       0.2053682067E-01       4    7    1         0.1133089522E+01      0.2774927328E+01
          0                 5           2             4    7     1      -0.2028572122E-02       4    7    1        -0.1150439327E+00      0.2817949521E+00
          0                 6           2             4    7     1      -0.1227429891E-02       4    7    1        -0.6960796705E-01      0.1705028754E+00
          0                 7           2             4    7     1      -0.1337696344E-02       4    7    1        -0.7586050721E-01      0.1858184727E+00
          0                 8           2             4    7     1      -0.1326700793E-01       4    7    1        -0.7523627192E+00      0.1842903604E+01
          0                 9           2             4    7     1      -0.1210127358E-02       4    7    1        -0.6862401713E-01      0.1680843724E+00
          0                10           2             4    7     1      -0.1407240626E-02       4    7    1        -0.7980196532E-01      0.1954729110E+00
                                                   Max.-Head-Change                         Max.-Flux-Residual
  Residual-Control   Outer-Iter.   Inner-Iter.     Column Row Layer    Maximum-Head-Change  Column Row Layer    Maximum-Flux-Residual          L2-NORM 
          0                11           2             4    7     1      -0.5969919697E-02       4    7    1        -0.3385398173E+00      0.8292485913E+00
          0                12           1             4    7     1       0.7401463209E-04       5    8    1         0.4318200311E-02      0.1057896688E-01

    ------------------------------------------------
       NWT REQUIRED           12 OUTER ITERATIONS 
       AND A TOTAL OF         23 INNER ITERATIONS.
    ------------------------------------------------

 NO OUTPUT CONTROL FOR STRESS PERIOD   45   TIME STEP   18
 
 SOLVING FOR HEAD 
                                                   Max.-Head-Change                         Max.-Flux-Residual
  Residual-Control   Outer-Iter.   Inner-Iter.     Column Row Layer    Maximum-Head-Change  Column Row Layer    Maximum-Flux-Residual          L2-NORM 
          0                 1           2             5    8     1       0.4706721804E-01       5    8    1         0.2560484906E+01      0.6210296377E+01
          0                 2           2             5    7     1      -0.5411276051E-01       5    8    1        -0.2976177981E+01      0.7250212885E+01
          0                 3           2             4    7     1      -0.1732854630E-01       4    7    1        -0.9301740608E+00      0.2281142196E+01
          0                 4           2             4    7     1       0.2049905715E-01       4    7    1         0.1131004333E+01      0.2769829413E+01
          0                 5           2             4    7     1      -0.1489321771E-01       4    7    1        -0.8446096003E+00      0.2068855997E+01
          0                 6           2             4    7     1      -0.1365151038E-01       4    7    1        -0.7741810024E+00      0.1896336422E+01
          0                 7           2             4    7     1       0.1685857091E-03       5    8    1         0.9836358695E-02      0.2409793716E-01
          0                 8           1             4    7     1       0.2476255269E-05       5    8    1         0.1444789591E-03      0.3539569477E-03

    ------------------------------------------------
       NWT REQUIRED            8 OUTER ITERATIONS 
       AND A TOTAL OF         15 INNER ITERATIONS.
    ------------------------------------------------

 NO OUTPUT CONTROL FOR STRESS PERIOD   45   TIME STEP   19
 
 SOLVING FOR HEAD 
                                                   Max.-Head-Change                         Max.-Flux-Residual
  Residual-Control   Outer-Iter.   Inner-Iter.     Column Row Layer    Maximum-Head-Change  Column Row Layer    Maximum-Flux-Residual          L2-NORM 
          0                 1           2             5    8     1       0.4736464867E-01       5    8    1         0.2576262612E+01      0.6258190633E+01
          0                 2           2             5    7     1      -0.5328409489E-01       5    8    1        -0.2930618704E+01      0.7139373734E+01
          0                 3           2             4    7     1      -0.1854106213E-01       4    7    1        -0.9952492332E+00      0.2440991360E+01
          0                 4           2             4    7     1       0.2129116191E-01       4    7    1         0.1174705541E+01      0.2876887640E+01
          0                 5           2             4    7     1      -0.1480182545E-01       4    7    1        -0.8394256266E+00      0.2056159005E+01
          0                 6           2             4    7     1      -0.1333098550E-01       4    7    1        -0.7560029641E+00      0.1851809590E+01
          0                 7           2             4    7     1       0.1646274979E-03       5    8    1         0.9605401164E-02      0.2353212242E-01
          0                 8           1             4    7     1       0.2418115628E-05       5    8    1         0.1410865884E-03      0.3456468654E-03

    ------------------------------------------------
       NWT REQUIRED            8 OUTER ITERATIONS 
       AND A TOTAL OF         15 INNER ITERATIONS.
    ------------------------------------------------

 NO OUTPUT CONTROL FOR STRESS PERIOD   45   TIME STEP   20
 
 SOLVING FOR HEAD 
                                                   Max.-Head-Change                         Max.-Flux-Residual
  Residual-Control   Outer-Iter.   Inner-Iter.     Column Row Layer    Maximum-Head-Change  Column Row Layer    Maximum-Flux-Residual          L2-NORM 
          0                 1           2             5    8     1       0.4762925977E-01       5    8    1         0.2590237445E+01      0.6302247471E+01
          0                 2           2             5    7     1      -0.5292438311E-01       5    8    1        -0.2910425217E+01      0.7091012169E+01
          0                 3           2             4    7     1      -0.1912278846E-01       4    7    1        -0.1026468142E+01      0.2517734381E+01
          0                 4           2             4    7     1       0.2171836209E-01       4    7    1         0.1198273781E+01      0.2934629042E+01
          0                 5           2             4    7     1      -0.1512105030E-01       4    7    1        -0.8575280713E+00      0.2100501534E+01
          0                 6           2             4    7     1      -0.1394974530E-01       4    7    1        -0.7910919786E+00      0.1937759497E+01
          0                 7           2             4    7     1       0.1722686575E-03       5    8    1         0.1005121793E-01      0.2462431330E-01
          0                 8           1             4    7     1       0.2530351840E-05       5    8    1         0.1476348721E-03      0.3616882124E-03

    ------------------------------------------------
       NWT REQUIRED            8 OUTER ITERATIONS 
       AND A TOTAL OF         15 INNER ITERATIONS.
    ------------------------------------------------

 NO OUTPUT CONTROL FOR STRESS PERIOD   45   TIME STEP   21
 
 SOLVING FOR HEAD 
                                                   Max.-Head-Change                         Max.-Flux-Residual
  Residual-Control   Outer-Iter.   Inner-Iter.     Column Row Layer    Maximum-Head-Change  Column Row Layer    Maximum-Flux-Residual          L2-NORM 
          0                 1           2             5    8     1       0.4791087819E-01       5    8    1         0.2605160627E+01      0.6347803154E+01
          0                 2           2             5    7     1      -0.5216614965E-01       5    8    1        -0.2868697468E+01      0.6989578584E+01
          0                 3           2             4    7     1      -0.2026577773E-01       4    7    1        -0.1087811452E+01      0.2668415481E+01
          0                 4           2             4    7     1       0.2266767524E-01       4    7    1         0.1250648453E+01      0.3062932024E+01
          0                 5           2             4    7     1      -0.1426466035E-01       4    7    1        -0.8089605743E+00      0.1981537214E+01
          0                 6           2             4    7     1      -0.1191318148E-02       4    7    1        -0.6755898920E-01      0.1654755707E+00
          0                 7           2             4    7     1      -0.1391054871E-02       4    7    1        -0.7888604056E-01      0.1932293667E+00
          0                 8           2             4    7     1      -0.6947898341E-02       4    7    1        -0.3940083394E+00      0.9651181806E+00
          0                 9           1             4    7     1       0.8593670613E-04       5    8    1         0.5013896131E-02      0.1228333571E-01

    ------------------------------------------------
       NWT REQUIRED            9 OUTER ITERATIONS 
       AND A TOTAL OF         17 INNER ITERATIONS.
    ------------------------------------------------

 NO OUTPUT CONTROL FOR STRESS PERIOD   45   TIME STEP   22
 
 SOLVING FOR HEAD 
                                                   Max.-Head-Change                         Max.-Flux-Residual
  Residual-Control   Outer-Iter.   Inner-Iter.     Column Row Layer    Maximum-Head-Change  Column Row Layer    Maximum-Flux-Residual          L2-NORM 
          0                 1           2             5    8     1       0.4800722072E-01       5    8    1         0.2609866600E+01      0.6373164670E+01
          0                 2           2             5    7     1      -0.5473086017E-01       5    8    1        -0.3006675497E+01      0.7330807822E+01
          0                 3           2             4    7     1      -0.1682811107E-01       4    7    1        -0.9032994072E+00      0.2215621984E+01
          0                 4           2             4    7     1       0.1994277620E-01       4    7    1         0.1100306379E+01      0.2694675347E+01
          0                 5           2             4    7     1      -0.1341702950E-01       4    7    1        -0.7608897357E+00      0.1863786297E+01
          0                 6           2             4    7     1      -0.1217793425E-02       4    7    1        -0.6906036927E-01      0.1691535860E+00
          0                 7           2             4    7     1      -0.1338438645E-01       4    7    1        -0.7590217845E+00      0.1859214866E+01
          0                 8           2             4    7     1       0.1654171753E-03       5    8    1         0.9651193112E-02      0.2364403586E-01
          0                 9           1             4    7     1       0.2428109927E-05       5    8    1         0.1416655714E-03      0.3470604501E-03

    ------------------------------------------------
       NWT REQUIRED            9 OUTER ITERATIONS 
       AND A TOTAL OF         17 INNER ITERATIONS.
    ------------------------------------------------

 NO OUTPUT CONTROL FOR STRESS PERIOD   45   TIME STEP   23
 
 SOLVING FOR HEAD 
                                                   Max.-Head-Change                         Max.-Flux-Residual
  Residual-Control   Outer-Iter.   Inner-Iter.     Column Row Layer    Maximum-Head-Change  Column Row Layer    Maximum-Flux-Residual          L2-NORM 
          0                 1           2             5    8     1       0.4829477500E-01       5    8    1         0.2625142172E+01      0.6418476283E+01
          0                 2           2             5    7     1      -0.5387913923E-01       5    8    1        -0.2959969044E+01      0.7216974944E+01
          0                 3           2             4    7     1      -0.1806206919E-01       4    7    1        -0.9695254439E+00      0.2378285125E+01
          0                 4           2             4    7     1       0.2073360767E-01       4    7    1         0.1143937241E+01      0.2801560387E+01
          0                 5           2             4    7     1      -0.2120193389E-02       4    7    1        -0.1202389307E+00      0.2945226140E+00
          0                 6           2             4    7     1      -0.1221978288E-01       4    7    1        -0.6929837728E+00      0.1697455381E+01
          0                 7           2             4    7     1      -0.1277271381E-02       4    7    1        -0.7243261892E-01      0.1774140157E+00
          0                 8           2             4    7     1      -0.1374406813E-01       4    7    1        -0.7794104897E+00      0.1909156754E+01
          0                 9           2             4    7     1       0.1699961585E-03       5    8    1         0.9918234283E-02      0.2429823294E-01
          0                10           1             4    7     1       0.2493674566E-05       5    8    1         0.1454891367E-03      0.3564286801E-03

    ------------------------------------------------
       NWT REQUIRED           10 OUTER ITERATIONS 
       AND A TOTAL OF         19 INNER ITERATIONS.
    ------------------------------------------------

 NO OUTPUT CONTROL FOR STRESS PERIOD   45   TIME STEP   24
 
 SOLVING FOR HEAD 
                                                   Max.-Head-Change                         Max.-Flux-Residual
  Residual-Control   Outer-Iter.   Inner-Iter.     Column Row Layer    Maximum-Head-Change  Column Row Layer    Maximum-Flux-Residual          L2-NORM 
          0                 1           2             5    8     1       0.4860344652E-01       5    8    1         0.2641589703E+01      0.6465811616E+01
          0                 2           2             5    7     1      -0.5249784808E-01       5    8    1        -0.2884624121E+01      0.7032599627E+01
          0                 3           2             4    7     1      -0.2005654115E-01       4    7    1        -0.1076569927E+01      0.2641135416E+01
          0                 4           2             4    7     1       0.2237680857E-01       4    7    1         0.1234595501E+01      0.3023639123E+01
          0                 5           2             4    7     1      -0.2111665661E-02       4    7    1        -0.1197552661E+00      0.2933401715E+00
          0                 6           2             4    7     1      -0.1361652193E-02       4    7    1        -0.7721909327E-01      0.1891461673E+00
          0                 7           2             4    7     1      -0.1292988105E-01       4    7    1        -0.7332453272E+00      0.1796075718E+01
          0                 8           2             4    7     1      -0.6768940864E-02       4    7    1        -0.3838577638E+00      0.9402448762E+00
          0                 9           1             4    7     1       0.8372323578E-04       5    8    1         0.4884858375E-02      0.1196743891E-01

    ------------------------------------------------
       NWT REQUIRED            9 OUTER ITERATIONS 
       AND A TOTAL OF         17 INNER ITERATIONS.
    ------------------------------------------------

 NO OUTPUT CONTROL FOR STRESS PERIOD   45   TIME STEP   25
 
 SOLVING FOR HEAD 
                                                   Max.-Head-Change                         Max.-Flux-Residual
  Residual-Control   Outer-Iter.   Inner-Iter.     Column Row Layer    Maximum-Head-Change  Column Row Layer    Maximum-Flux-Residual          L2-NORM 
          0                 1           2             5    8     1       0.4868182239E-01       5    8    1         0.2645332948E+01      0.6488318760E+01
          0                 2           2             5    7     1      -0.5523506747E-01       5    8    1        -0.3031992793E+01      0.7396858496E+01
          0                 3           2             4    7     1      -0.1638599761E-01       4    7    1        -0.8795597404E+00      0.2157648550E+01
          0                 4           2             4    7     1       0.1955159164E-01       4    7    1         0.1078719243E+01      0.2641825460E+01
          0                 5           2             4    7     1      -0.1309614641E-01       4    7    1        -0.7426895273E+00      0.1819205910E+01
          0                 6           2             4    7     1      -0.1194137232E-02       4    7    1        -0.6771859940E-01      0.1658671373E+00
          0                 7           2             4    7     1      -0.1394208463E-02       4    7    1        -0.7906449922E-01      0.1936665111E+00
          0                 8           2             4    7     1      -0.1375883987E-01       4    7    1        -0.7802463163E+00      0.1911204139E+01
          0                 9           2             4    7     1       0.1701788646E-03       5    8    1         0.9928869098E-02      0.2432428436E-01
          0                10           1             4    7     1       0.2496354652E-05       5    8    1         0.1456451396E-03      0.3568096969E-03

    ------------------------------------------------
       NWT REQUIRED           10 OUTER ITERATIONS 
       AND A TOTAL OF         19 INNER ITERATIONS.
    ------------------------------------------------

 NO OUTPUT CONTROL FOR STRESS PERIOD   45   TIME STEP   26
 
 SOLVING FOR HEAD 
                                                   Max.-Head-Change                         Max.-Flux-Residual
  Residual-Control   Outer-Iter.   Inner-Iter.     Column Row Layer    Maximum-Head-Change  Column Row Layer    Maximum-Flux-Residual          L2-NORM 
          0                 1           2             5    8     1       0.4901655632E-01       5    8    1         0.2663240340E+01      0.6537655844E+01
          0                 2           2             5    7     1      -0.5335107077E-01       5    8    1        -0.2929524014E+01      0.7145552818E+01
          0                 3           2             4    7     1      -0.1902944820E-01       4    7    1        -0.1021436400E+01      0.2505997002E+01
          0                 4           2             4    7     1       0.2156833966E-01       4    7    1         0.1189986969E+01      0.2914387596E+01
          0                 5           2             4    7     1      -0.1464451636E-01       4    7    1        -0.8304973747E+00      0.2034292359E+01
          0                 6           2             4    7     1      -0.1357471904E-01       4    7    1        -0.7698185973E+00      0.1885650940E+01
          0                 7           2             4    7     1       0.1676374011E-03       5    8    1         0.9780927185E-02      0.2396212776E-01
          0                 8           1             4    7     1       0.2462326152E-05       5    8    1         0.1436647717E-03      0.3519619318E-03

    ------------------------------------------------
       NWT REQUIRED            8 OUTER ITERATIONS 
       AND A TOTAL OF         15 INNER ITERATIONS.
    ------------------------------------------------

 NO OUTPUT CONTROL FOR STRESS PERIOD   45   TIME STEP   27
 
 SOLVING FOR HEAD 
                                                   Max.-Head-Change                         Max.-Flux-Residual
  Residual-Control   Outer-Iter.   Inner-Iter.     Column Row Layer    Maximum-Head-Change  Column Row Layer    Maximum-Flux-Residual          L2-NORM 
          0                 1           2             5    8     1       0.4926330536E-01       5    8    1         0.2676295357E+01      0.6577507188E+01
          0                 2           2             5    7     1      -0.5290282945E-01       5    8    1        -0.2904678555E+01      0.7085503517E+01
          0                 3           2             4    7     1      -0.1973331355E-01       4    7    1        -0.1059210952E+01      0.2598812324E+01
          0                 4           2             4    7     1       0.2202731179E-01       4    7    1         0.1215308071E+01      0.2976421506E+01
          0                 5           2             4    7     1      -0.2157013078E-02       5    8    1        -0.1223269781E+00      0.2996389441E+00
          0                 6           2             4    7     1      -0.1269943513E-02       4    7    1        -0.7201804291E-01      0.1764061945E+00
          0                 7           2             4    7     1      -0.1369419825E-02       4    7    1        -0.7765858527E-01      0.1902228104E+00
          0                 8           2             4    7     1      -0.1391764226E-02       4    7    1        -0.7892493161E-01      0.1933246399E+00
          0                 9           2             4    7     1      -0.1372319052E-01       4    7    1        -0.7782152585E+00      0.1906229086E+01
          0                10           2             4    7     1      -0.2588544454E-02       4    7    1        -0.1467890258E+00      0.3595473958E+00
          0                11           1             4    7     1       0.3206745459E-04       5    8    1         0.1871031694E-02      0.4584028646E-02

    ------------------------------------------------
       NWT REQUIRED           11 OUTER ITERATIONS 
       AND A TOTAL OF         21 INNER ITERATIONS.
    ------------------------------------------------

 NO OUTPUT CONTROL FOR STRESS PERIOD   45   TIME STEP   28
 
 SOLVING FOR HEAD 
                                                   Max.-Head-Change                         Max.-Flux-Residual
  Residual-Control   Outer-Iter.   Inner-Iter.     Column Row Layer    Maximum-Head-Change  Column Row Layer    Maximum-Flux-Residual          L2-NORM 
          0                 1           2             5    8     1       0.4932491223E-01       5    8    1         0.2679139794E+01      0.6597418647E+01
          0                 2           2             5    7     1      -0.5579589848E-01       5    8    1        -0.3060529212E+01      0.7470565797E+01
          0                 3           2             4    7     1      -0.1585913818E-01       4    7    1        -0.8512723252E+00      0.2088495055E+01
          0                 4           2             4    7     1       0.1886575759E-01       4    7    1         0.1040875907E+01      0.2549154599E+01
          0                 5           2             4    7     1      -0.2024678922E-02       4    7    1        -0.1148214320E+00      0.2812524081E+00
          0                 6           2             4    7     1      -0.1374567283E-02       4    7    1        -0.7795114517E-01      0.1909393277E+00
          0                 7           2             4    7     1      -0.1398090692E-02       4    7    1        -0.7928439011E-01      0.1942051167E+00
          0                 8           2             4    7     1      -0.1307216028E-01       4    7    1        -0.7413030932E+00      0.1815813110E+01
          0                 9           2             4    7     1      -0.7180661968E-02       4    7    1        -0.4072000337E+00      0.9974213934E+00
          0                10           1             4    7     1       0.8807560096E-04       5    8    1         0.5138761136E-02      0.1258954652E-01

    ------------------------------------------------
       NWT REQUIRED           10 OUTER ITERATIONS 
       AND A TOTAL OF         19 INNER ITERATIONS.
    ------------------------------------------------

 NO OUTPUT CONTROL FOR STRESS PERIOD   45   TIME STEP   29
 
 SOLVING FOR HEAD 
                                                   Max.-Head-Change                         Max.-Flux-Residual
  Residual-Control   Outer-Iter.   Inner-Iter.     Column Row Layer    Maximum-Head-Change  Column Row Layer    Maximum-Flux-Residual          L2-NORM 
          0                 1           2             5    8     1       0.4953797918E-01       5    8    1         0.2690358683E+01      0.6632898189E+01
          0                 2           2             5    7     1      -0.5599184520E-01       5    8    1        -0.3070588444E+01      0.7496380628E+01
          0                 3           2             4    7     1      -0.1566994979E-01       4    7    1        -0.8411151492E+00      0.2063648639E+01
          0                 4           2             4    7     1       0.1888191940E-01       4    7    1         0.1041766256E+01      0.2551342996E+01
          0                 5           2             4    7     1      -0.1327056360E-01       4    7    1        -0.7525772504E+00      0.1843426627E+01
          0                 6           2             4    7     1      -0.1219981933E-02       4    7    1        -0.6918391774E-01      0.1694562563E+00
          0                 7           2             4    7     1      -0.1339025417E-01       4    7    1        -0.7593482804E+00      0.1860014615E+01
          0                 8           2             4    7     1       0.1654896936E-03       5    8    1         0.9655342068E-02      0.2365419583E-01
          0                 9           1             4    7     1       0.2429174670E-05       5    8    1         0.1417264898E-03      0.3472097233E-03

    ------------------------------------------------
       NWT REQUIRED            9 OUTER ITERATIONS 
       AND A TOTAL OF         17 INNER ITERATIONS.
    ------------------------------------------------

 NO OUTPUT CONTROL FOR STRESS PERIOD   45   TIME STEP   30



 STREAM LISTING     PERIOD     45   STEP       30

 LAYER ROW COL. STREAM  RCH.  FLOW INTO     FLOW TO   FLOW OUT OF   OVRLND.     DIRECT     STREAM       STREAM     STREAM     STREAM   STREAMBED  STREAMBED
                SEG.NO.  NO.  STRM. RCH.    AQUIFER    STRM. RCH.    RUNOFF     PRECIP       ET          HEAD       DEPTH      WIDTH   CONDCTNC.   GRADIENT

   1    1    1     1     1    2.7749E+01  2.5751E-01   2.7492E+01  0.000E+00  0.000E+00  0.000E+00  1.09427E+03  1.218E+00  1.357E+01  6.105E-02  1.406E+00
   1    2    2     1     2    2.7492E+01  3.9832E-01   2.7093E+01  0.000E+00  0.000E+00  0.000E+00  1.08927E+03  1.213E+00  1.351E+01  9.454E-02  1.404E+00
   1    3    3     1     3    2.7093E+01  3.3923E-01   2.6754E+01  0.000E+00  0.000E+00  0.000E+00  1.08363E+03  1.208E+00  1.344E+01  8.062E-02  1.403E+00
   1    3    4     1     4    2.6754E+01  3.1200E-01   2.6442E+01  0.000E+00  0.000E+00  0.000E+00  1.07861E+03  1.203E+00  1.337E+01  7.422E-02  1.401E+00
   1    4    5     2     1    2.4442E+01  3.2655E-01   2.4116E+01  0.000E+00  0.000E+00  0.000E+00  1.07312E+03  1.187E+00  1.200E+01  7.800E-02  1.396E+00
   1    5    6     2     2    2.4116E+01  2.5068E-01   2.3865E+01  0.000E+00  0.000E+00  0.000E+00  1.06769E+03  1.178E+00  1.200E+01  6.000E-02  1.393E+00
   1    6    6     2     3    2.3865E+01  2.5024E-01   2.3615E+01  0.000E+00  0.000E+00  0.000E+00  1.06296E+03  1.171E+00  1.200E+01  6.000E-02  1.390E+00
   1    7    6     2     4    2.3615E+01  2.4979E-01   2.3365E+01  0.000E+00  0.000E+00  0.000E+00  1.05824E+03  1.163E+00  1.200E+01  6.000E-02  1.388E+00
   1    8    6     2     5    2.3365E+01  2.4935E-01   2.3115E+01  0.000E+00  0.000E+00  0.000E+00  1.05351E+03  1.156E+00  1.200E+01  6.000E-02  1.385E+00
   1    3    5     3     1    2.0000E+00  2.8252E-01   1.7175E+00  0.000E+00  0.000E+00  0.000E+00  1.07555E+03  1.909E+00  9.636E+00  7.227E-02  1.955E+00
   1    3    6     3     2    1.7175E+00  2.4905E-01   1.4684E+00  0.000E+00  0.000E+00  0.000E+00  1.07264E+03  1.727E+00  8.909E+00  6.682E-02  1.864E+00
   1    3    7     3     3    1.4684E+00  1.9718E-01   1.2712E+00  0.000E+00  0.000E+00  0.000E+00  1.06987E+03  1.555E+00  8.218E+00  5.547E-02  1.777E+00
   1    4    8     3     4    1.2712E+00  2.2567E-01   1.0456E+00  0.000E+00  0.000E+00  0.000E+00  1.06682E+03  1.364E+00  7.455E+00  6.709E-02  1.682E+00
   1    5    8     3     5    1.0456E+00  1.5790E-01   8.8768E-01  0.000E+00  0.000E+00  0.000E+00  1.06362E+03  1.164E+00  6.655E+00  4.991E-02  1.582E+00
   1    6    8     3     6    8.8768E-01  5.5980E-02   8.3170E-01  0.000E+00  0.000E+00  0.000E+00  1.06158E+03  1.036E+00  6.145E+00  1.844E-02  1.518E+00
   1    5   10     4     1    1.0000E+01  9.0919E-02   9.9091E+00  0.000E+00  0.000E+00  0.000E+00  1.07836E+03  6.368E-01  1.000E+01  2.500E-02  1.212E+00
   1    5    9     4     2    9.9091E+00  1.8158E-01   9.7275E+00  0.000E+00  0.000E+00  0.000E+00  1.07154E+03  6.315E-01  1.000E+01  5.000E-02  1.211E+00
   1    6    8     4     3    9.7275E+00  1.2689E-01   9.6006E+00  0.000E+00  0.000E+00  0.000E+00  1.06381E+03  6.256E-01  1.000E+01  3.500E-02  1.209E+00
   1    6    8     5     1    1.0432E+01  2.2686E-01   1.0205E+01  0.000E+00  0.000E+00  0.000E+00  1.05868E+03  6.790E-01  1.542E+01  6.166E-02  1.226E+00
   1    7    7     5     2    1.0205E+01  2.7894E-01   9.9265E+00  0.000E+00  0.000E+00  0.000E+00  1.05417E+03  6.732E-01  1.519E+01  7.594E-02  1.224E+00
   1    8    7     5     3    9.9265E+00  1.9221E-01   9.7343E+00  0.000E+00  0.000E+00  0.000E+00  1.04992E+03  6.676E-01  1.497E+01  5.241E-02  1.223E+00
   1    8    6     5     4    9.7343E+00  1.3577E-01   9.5985E+00  0.000E+00  0.000E+00  0.000E+00  1.04691E+03  6.637E-01  1.482E+01  3.706E-02  1.221E+00
   1    9    6     6     1    9.5985E+00  2.2097E-01   9.3776E+00  0.000E+00  0.000E+00  0.000E+00  1.04341E+03  6.828E-01  1.200E+01  6.000E-02  1.228E+00
   1   10    7     6     2    9.3776E+00  2.2039E-01   9.1572E+00  0.000E+00  0.000E+00  0.000E+00  1.03885E+03  6.732E-01  1.200E+01  6.000E-02  1.224E+00
   1   11    7     6     3    9.1572E+00  2.1981E-01   8.9374E+00  0.000E+00  0.000E+00  0.000E+00  1.03430E+03  6.636E-01  1.200E+01  6.000E-02  1.221E+00
   1   12    7     6     4    8.9374E+00  2.1923E-01   8.7181E+00  0.000E+00  0.000E+00  0.000E+00  1.02974E+03  6.539E-01  1.200E+01  6.000E-02  1.218E+00
   1   13    7     6     5    8.7181E+00 -8.8285E-02   8.8064E+00  0.000E+00  0.000E+00  0.000E+00  1.02656E+03  6.509E-01  1.200E+01  2.400E-01 -1.226E-01
   1   14    9     7     1    1.5000E+02  1.3506E+00   1.4865E+02  0.000E+00  0.000E+00  0.000E+00  1.03987E+03  2.288E+00  5.529E+01  5.593E-01  8.049E-01
   1   13    8     7     2    1.4865E+02  1.8762E+00   1.4677E+02  0.000E+00  0.000E+00  0.000E+00  1.03478E+03  2.279E+00  5.526E+01  6.148E-01  1.017E+00
   1   13    7     7     3    1.4677E+02  1.5421E+00   1.4523E+02  0.000E+00  0.000E+00  0.000E+00  1.02969E+03  2.270E+00  5.521E+01  5.584E-01  9.205E-01
   1   13    6     8     1    1.5404E+02  8.9607E-01   1.5314E+02  0.000E+00  0.000E+00  0.000E+00  1.02472E+03  2.842E+00  4.121E+01  4.199E-01  7.113E-01
   1   13    5     8     2    1.5314E+02  1.6536E-01   1.5298E+02  0.000E+00  0.000E+00  0.000E+00  1.01846E+03  2.838E+00  4.115E+01  4.194E-01  1.314E-01
   1   13    4     8     3    1.5298E+02 -2.4434E+00   1.5542E+02  0.000E+00  0.000E+00  0.000E+00  1.01222E+03  2.846E+00  4.127E+01  4.205E+00 -1.937E-01
   1   13    3     8     4    1.5542E+02 -3.6398E+00   1.5906E+02  0.000E+00  0.000E+00  0.000E+00  1.00599E+03  2.867E+00  4.157E+01  4.236E+00 -2.864E-01
   1   13    2     8     5    1.5906E+02 -2.5830E+00   1.6164E+02  0.000E+00  0.000E+00  0.000E+00  9.99763E+02  2.888E+00  4.188E+01  4.268E+00 -2.017E-01
   1   13    1     8     6    1.6164E+02 -1.9935E+00   1.6364E+02  0.000E+00  0.000E+00  0.000E+00  9.94779E+02  2.904E+00  4.210E+01  2.574E+00 -2.581E-01
   1    8    6     9     1    2.3115E+01  0.0000E+00   2.3115E+01  0.000E+00  0.000E+00  0.000E+00  1.08250E+03  3.746E+00  4.000E+00  0.000E+00  2.249E+00
   1    8    5     9     2    2.3115E+01  0.0000E+00   2.3115E+01  0.000E+00  0.000E+00  0.000E+00  1.08200E+03  3.746E+00  4.000E+00  0.000E+00  2.249E+00





UNSATURATED ZONE PACKAGE VOLUMETRIC BUDGET FOR  TIME STEP    30 STRESS PERIOD   45
  ------------------------------------------------------------------------------



     CUMULATIVE VOLUMES      L**3       RATES FOR THIS TIME STEP      L**3/T
     ------------------                 ------------------------

           IN:                                      IN:
           ---                                      ---
        INFILTRATION =  1814308554.4398          INFILTRATION =          50.4756

          OUT:                                     OUT:
          ----                                     ----
              UZF ET =  1668052921.9095                UZF ET =          49.5745
        UZF RECHARGE =       73224.0000          UZF RECHARGE =       0.0000E+00

            IN - OUT =   146182408.5303              IN - OUT =           0.9011

          STORAGE:                                 STORAGE:
          --------                                 --------
      STORAGE CHANGE =   146183761.2956        STORAGE CHANGE =           0.9011

 PERCENT DISCREPANCY IS DIFFERENCE BETWEEN IN-OUT MINUS CHANGE IN STORAGE
 DIVIDED BY THE AVERAGE OF IN AND OUT TIMES 100

 PERCENT DISCREPANCY =          -0.00     PERCENT DISCREPANCY =          -0.00






1
  VOLUMETRIC BUDGET FOR AGRICULTURAL FIELDS AT  END OF TIME STEP   30, STRESS PERIOD  45
  ------------------------------------------------------------------------------

     CUMULATIVE VOLUMES      L**3       RATES FOR THIS TIME STEP      L**3/T
     ------------------                 ------------------------

           IN:                                      IN:
           ---                                      ---
               AG WELLS  =   520982176.0000                 AG WELLS  =          26.5121
      DIVERSION SEGMENTS =  1195234816.0000        DIVERSION SEGMENTS =          23.1155
       IRRIGATION PONDS  =           0.0000         IRRIGATION PONDS  =           0.0000
           GW IRRIGATION =           0.0000             GW IRRIGATION =           0.0000
           SW IRRIGATION =           0.0000             SW IRRIGATION =           0.0000
        SYSTEM LOSSES GW =           0.0000          SYSTEM LOSSES GW =           0.0000
        SYSTEM LOSSES SW =           0.0000          SYSTEM LOSSES SW =           0.0000

                TOTAL IN =  1716216960.0000                  TOTAL IN =          49.6276

          OUT:                                     OUT:
          ----                                     ----
               AG WELLS  =           0.0000                 AG WELLS  =           0.0000
      DIVERSION SEGMENTS =           0.0000        DIVERSION SEGMENTS =           0.0000
       IRRIGATION PONDS  =           0.0000         IRRIGATION PONDS  =           0.0000
           GW IRRIGATION =   520982176.0000             GW IRRIGATION =          26.5121
           SW IRRIGATION =  1195255936.0000             SW IRRIGATION =          23.1159
        SYSTEM LOSSES GW =           0.0000          SYSTEM LOSSES GW =           0.0000
        SYSTEM LOSSES SW =           0.0000          SYSTEM LOSSES SW =           0.0000

               TOTAL OUT =  1716238080.0000                 TOTAL OUT =          49.6281

                IN - OUT =      -21120.0000                  IN - OUT =      -4.6158E-04

     PERCENT DISCREPANCY =          -0.00         PERCENT DISCREPANCY =          -0.00



1
  VOLUMETRIC BUDGET FOR ENTIRE MODEL AT END OF TIME STEP   30, STRESS PERIOD  45
  ------------------------------------------------------------------------------

     CUMULATIVE VOLUMES      L**3       RATES FOR THIS TIME STEP      L**3/T
     ------------------                 ------------------------

           IN:                                      IN:
           ---                                      ---
             STORAGE     =   820088000.0000               STORAGE     =          25.6911
       CONSTANT HEAD     =           0.0000         CONSTANT HEAD     =           0.0000
     HEAD DEP BOUNDS     =    33120384.0000       HEAD DEP BOUNDS     =           0.2868
      STREAM LEAKAGE     =  1392616832.0000        STREAM LEAKAGE     =          11.7459
        UZF RECHARGE     =       73223.9531          UZF RECHARGE     =           0.0000
               GW ET     =           0.0000                 GW ET     =           0.0000
     SURFACE LEAKAGE     =           0.0000       SURFACE LEAKAGE     =           0.0000
           AG WELLS      =           0.0000             AG WELLS      =           0.0000

                TOTAL IN =  2245898496.0000                  TOTAL IN =          37.7237

          OUT:                                     OUT:
          ----                                     ----
             STORAGE     =   448294944.0000               STORAGE     =           0.1765
       CONSTANT HEAD     =           0.0000         CONSTANT HEAD     =           0.0000
     HEAD DEP BOUNDS     =    33669500.0000       HEAD DEP BOUNDS     =           0.2870
      STREAM LEAKAGE     =  1239616896.0000        STREAM LEAKAGE     =          10.7480
        UZF RECHARGE     =           0.0000          UZF RECHARGE     =           0.0000
               GW ET     =     3343843.5000                 GW ET     =           0.0000
     SURFACE LEAKAGE     =           0.0000       SURFACE LEAKAGE     =           0.0000
           AG WELLS      =   520982176.0000             AG WELLS      =          26.5121

               TOTAL OUT =  2245907456.0000                 TOTAL OUT =          37.7237

                IN - OUT =       -8960.0000                  IN - OUT =       1.5259E-05

     PERCENT DISCREPANCY =          -0.00         PERCENT DISCREPANCY =           0.00






         TIME SUMMARY AT END OF TIME STEP   30 IN STRESS PERIOD   45
                    SECONDS     MINUTES      HOURS       DAYS        YEARS
                    -----------------------------------------------------------
   TIME STEP LENGTH  87667.      1461.1      24.352      1.0147     2.77799E-03
 STRESS PERIOD TIME 2.63000E+06  43833.      730.56      30.440     8.33397E-02
         TOTAL TIME 1.15805E+08 1.93009E+06  32168.      1340.3      3.6696    
1
1
                            STRESS PERIOD NO.   46, LENGTH =   2630000.    
                            -----------------------------------------------

                              NUMBER OF TIME STEPS =    30

                               MULTIPLIER FOR DELT =     1.000

                            INITIAL TIME STEP SIZE =   87666.66    

 REUSING NON-PARAMETER GHB CELLS FROM LAST STRESS PERIOD

      2 GHB CELLS

 REUSING STREAM SEGMENT DATA FROM LAST STRESS PERIOD



            AREAL INFILTRATION RATE
 READING ON UNIT   19 WITH FORMAT: (FREE)              

            1           2           3           4           5           6           7           8           9          10
 ........................................................................................................................
   1   1.0000E-10  2.0000E-10   0.000       0.000       0.000       0.000       0.000       0.000       0.000       0.000    
   2   2.0000E-10  1.0000E-10  2.0000E-10   0.000       0.000      8.0000E-10  8.0000E-10  5.0000E-10   0.000       0.000    
   3    0.000      5.0000E-10  1.0000E-10  1.0000E-10  8.0000E-10  8.0000E-10  5.0000E-10  5.0000E-10   0.000       0.000    
   4   8.0000E-10  5.0000E-10  1.0000E-10  1.0000E-10  1.0000E-10  1.0000E-10  1.0000E-10  1.0000E-10  2.0000E-10   0.000    
   5   8.0000E-10  5.0000E-10  1.0000E-10  1.0000E-10  1.0000E-10  1.0000E-10  1.0000E-10  1.0000E-10  1.0000E-10  1.0000E-10
   6   8.0000E-10  5.0000E-10  5.0000E-10  2.0000E-10  2.0000E-10  1.0000E-10  1.0000E-10  1.0000E-10  1.0000E-10  5.0000E-10
   7   8.0000E-10  5.0000E-10  5.0000E-10  2.0000E-10  2.0000E-10  1.0000E-10  1.0000E-10  2.0000E-10  2.0000E-10   0.000    
   8    0.000      5.0000E-10  5.0000E-10  2.0000E-10  2.0000E-10  1.0000E-10  1.0000E-10  2.0000E-10  5.0000E-10   0.000    
   9    0.000      5.0000E-10  5.0000E-10  2.0000E-10  2.0000E-10  1.0000E-10  1.0000E-10  2.0000E-10  5.0000E-10   0.000    
  10    0.000      5.0000E-10  5.0000E-10  2.0000E-10  2.0000E-10  1.0000E-10  1.0000E-10  2.0000E-10  5.0000E-10  8.0000E-10
  11    0.000      1.0000E-10  1.0000E-10  1.0000E-10  1.0000E-10  1.0000E-10  1.0000E-10  2.0000E-10  5.0000E-10   0.000    
  12   1.0000E-10  1.0000E-10  1.0000E-10  1.0000E-10  1.0000E-10  1.0000E-10  1.0000E-10  1.0000E-10  2.0000E-10   0.000    
  13   1.0000E-10  1.0000E-10  2.0000E-10  2.0000E-10  2.0000E-10  2.0000E-10  2.0000E-10  1.0000E-10  1.0000E-10   0.000    
  14    0.000      2.0000E-10  5.0000E-10  5.0000E-10  5.0000E-10  5.0000E-10  5.0000E-10  2.0000E-10  1.0000E-10   0.000    
  15    0.000       0.000      8.0000E-10  8.0000E-10  8.0000E-10  8.0000E-10   0.000       0.000       0.000       0.000    

                  ET RATE =  7.500000E-08

 USING ET EXTINCTION DEPTH FROM PREVIOUS STRESS PERIOD. CURRENT PERIOD IS:      46

 USING EXTINCTION WATER CONTENT FROM PREVIOUS STRESS PERIOD. CURRENT PERIOD IS:      46

 USING AIR ENTRY PRESSURE FROM PREVIOUS STRESS PERIOD. CURRENT PERIOD IS:      46

 USING ROOT PRESSURE HEAD FROM PREVIOUS STRESS PERIOD. CURRENT PERIOD IS:      46

 USING ROOT ACTIVITY FROM PREVIOUS STRESS PERIOD. CURRENT PERIOD IS:      46

 PROCESSING AG STRESS PERIOD DATA

 READING AG STRESS PERIOD DATA

 READING IRRIGATION SEGMENT

 READING IRRIGATION WELL

 READING SUPPLEMENTAL WELL

 NO IRRPOND OR REUSING IRRPOND DATA FROM LAST STRESS PERIOD

 END PROCESSING AG STRESS PERIOD DATA OPTIONS
 
 SOLVING FOR HEAD 
                                                   Max.-Head-Change                         Max.-Flux-Residual
  Residual-Control   Outer-Iter.   Inner-Iter.     Column Row Layer    Maximum-Head-Change  Column Row Layer    Maximum-Flux-Residual          L2-NORM 
          0                 1           2             5    8     1       0.4983232499E-01       5    8    1         0.2706079424E+01      0.6632705559E+01
          0                 2           2             5    8     1      -0.4847292224E-02       5    8    1        -0.2706055757E+00      0.6634376007E+00
          0                 3           2             5    8     1       0.3300829643E-03       5    8    1         0.1894242088E-01      0.4643331286E-01
          0                 4           1             5    8     1      -0.1313430857E-04       5    8    1        -0.7747459927E-03      0.1898670004E-02

    ------------------------------------------------
       NWT REQUIRED            4 OUTER ITERATIONS 
       AND A TOTAL OF          7 INNER ITERATIONS.
    ------------------------------------------------

 NO OUTPUT CONTROL FOR STRESS PERIOD   46   TIME STEP    1
 
 SOLVING FOR HEAD 
                                                   Max.-Head-Change                         Max.-Flux-Residual
  Residual-Control   Outer-Iter.   Inner-Iter.     Column Row Layer    Maximum-Head-Change  Column Row Layer    Maximum-Flux-Residual          L2-NORM 
          0                 1           2             5    6     1       0.4774721353E-01       5    8    1         0.2589611223E+01      0.6461771657E+01
          0                 2           2             5    6     1      -0.4644469173E-02       5    8    1        -0.2589589418E+00      0.6458505860E+00
          0                 3           2             4    7     1      -0.7581546421E-02       4    7    1        -0.4069778821E+00      0.9956625784E+00
          0                 4           2             4    7     1       0.7977478049E-02       4    7    1         0.4401411460E+00      0.1077716597E+01
          0                 5           2             4    7     1      -0.1111840971E-02       4    7    1        -0.6305334814E-01      0.1550087449E+00
          0                 6           2             4    7     1       0.7285599992E-03       5    8    1         0.4246545185E-01      0.1040596386E+00
          0                 7           2             4    7     1      -0.2335996320E-02       5    8    1        -0.1399282034E+00      0.3447280255E+00
          0                 8           2             4    7     1       0.3057354199E-03       5    8    1         0.1882112154E-01      0.5531218856E-01
          0                 9           2             4    7     1       0.2975936887E-03       4    7    1         0.1831808261E-01      0.5211178885E-01
          0                10           2             4   13     1      -0.2304189447E-03       4   13    1        -0.1434382133E-01      0.3200760411E-01
                                                   Max.-Head-Change                         Max.-Flux-Residual
  Residual-Control   Outer-Iter.   Inner-Iter.     Column Row Layer    Maximum-Head-Change  Column Row Layer    Maximum-Flux-Residual          L2-NORM 
          0                11           2             4    7     1       0.1522851935E-02       4    7    1         0.9373563960E-01      0.2296179810E+00
          0                12           2             4    7     1      -0.1826202590E-02       5    8    1        -0.1155024641E+00      0.2847132799E+00
          0                13           2             4    7     1       0.1636499439E-02       5    8    1         0.1063433697E+00      0.2605102662E+00
          0                14           2             4    7     1       0.2415033181E-03       4    7    1         0.1569298724E-01      0.3856066592E-01
          0                15           1             4   13     1      -0.3402341248E-04       4   13    1        -0.2117550494E-02      0.4017300459E-02

    ------------------------------------------------
       NWT REQUIRED           15 OUTER ITERATIONS 
       AND A TOTAL OF         29 INNER ITERATIONS.
    ------------------------------------------------

 NO OUTPUT CONTROL FOR STRESS PERIOD   46   TIME STEP    2
 
 SOLVING FOR HEAD 
                                                   Max.-Head-Change                         Max.-Flux-Residual
  Residual-Control   Outer-Iter.   Inner-Iter.     Column Row Layer    Maximum-Head-Change  Column Row Layer    Maximum-Flux-Residual          L2-NORM 
          0                 1           2             5    6     1       0.4588326840E-01       5    6    1         0.2481952504E+01      0.6239002292E+01
          0                 2           2             5    6     1      -0.1691579310E-01       5    6    1        -0.9328327598E+00      0.2265861754E+01
          0                 3           2             4    7     1      -0.7941006812E-02       4    7    1        -0.4262556742E+00      0.1071935347E+01
          0                 4           2             4    7     1       0.2179912265E-01       4    7    1         0.1202710586E+01      0.2945964152E+01
          0                 5           2             4    7     1      -0.8676159513E-03       5    8    1        -0.4920955774E-01      0.1205650514E+00
          0                 6           1             4    7     1       0.1070601881E-04       5    8    1         0.6242957484E-03      0.1532660439E-02

    ------------------------------------------------
       NWT REQUIRED            6 OUTER ITERATIONS 
       AND A TOTAL OF         11 INNER ITERATIONS.
    ------------------------------------------------

 NO OUTPUT CONTROL FOR STRESS PERIOD   46   TIME STEP    3
 
 SOLVING FOR HEAD 
                                                   Max.-Head-Change                         Max.-Flux-Residual
  Residual-Control   Outer-Iter.   Inner-Iter.     Column Row Layer    Maximum-Head-Change  Column Row Layer    Maximum-Flux-Residual          L2-NORM 
          0                 1           2             5    6     1       0.4411669661E-01       5    6    1         0.2384651509E+01      0.6047808501E+01
          0                 2           2             5    6     1      -0.4291323219E-02       5    6    1        -0.2384631877E+00      0.6057712387E+00
          0                 3           2             4    7     1      -0.3457777482E-01       4    7    1        -0.1855883296E+01      0.4563086020E+01
          0                 4           2             4    7     1       0.3624722043E-01       4    7    1         0.1999843754E+01      0.4898715065E+01
          0                 5           2             4    7     1      -0.1442660501E-02       5    8    1        -0.8183303237E-01      0.2004748641E+00
          0                 6           1             4    7     1       0.1780182360E-04       5    8    1         0.1038165200E-02      0.2547178508E-02

    ------------------------------------------------
       NWT REQUIRED            6 OUTER ITERATIONS 
       AND A TOTAL OF         11 INNER ITERATIONS.
    ------------------------------------------------

 NO OUTPUT CONTROL FOR STRESS PERIOD   46   TIME STEP    4
 
 SOLVING FOR HEAD 
                                                   Max.-Head-Change                         Max.-Flux-Residual
  Residual-Control   Outer-Iter.   Inner-Iter.     Column Row Layer    Maximum-Head-Change  Column Row Layer    Maximum-Flux-Residual          L2-NORM 
          0                 1           2             5    6     1       0.4244960083E-01       5    6    1         0.2292834125E+01      0.5869276651E+01
          0                 2           2             5    6     1      -0.4129162403E-02       5    6    1        -0.2292815970E+00      0.5879494793E+00
          0                 3           2             4    7     1      -0.3457864548E-01       4    7    1        -0.1855916790E+01      0.4564068621E+01
          0                 4           2             4    7     1       0.3624729334E-01       4    7    1         0.1999846430E+01      0.4898784510E+01
          0                 5           2             4    7     1      -0.1442663402E-02       5    8    1        -0.8183495091E-01      0.2004776573E+00
          0                 6           1             4    7     1       0.1780185967E-04       5    8    1         0.1038189332E-02      0.2547194780E-02

    ------------------------------------------------
       NWT REQUIRED            6 OUTER ITERATIONS 
       AND A TOTAL OF         11 INNER ITERATIONS.
    ------------------------------------------------

 NO OUTPUT CONTROL FOR STRESS PERIOD   46   TIME STEP    5
 
 SOLVING FOR HEAD 
                                                   Max.-Head-Change                         Max.-Flux-Residual
  Residual-Control   Outer-Iter.   Inner-Iter.     Column Row Layer    Maximum-Head-Change  Column Row Layer    Maximum-Flux-Residual          L2-NORM 
          0                 1           2             5    6     1       0.4087542111E-01       5    6    1         0.2206190738E+01      0.5700163981E+01
          0                 2           2             5    6     1      -0.3976039612E-02       5    6    1        -0.2206173940E+00      0.5710696979E+00
          0                 3           2             4    7     1      -0.3457972789E-01       4    7    1        -0.1855962739E+01      0.4565004981E+01
          0                 4           2             4    7     1       0.3624737600E-01       4    7    1         0.1999849859E+01      0.4898850543E+01
          0                 5           2             4    7     1      -0.1442666691E-02       5    8    1        -0.8183674912E-01      0.2004803454E+00
          0                 6           1             4    7     1       0.1780190033E-04       5    8    1         0.1038211961E-02      0.2547213538E-02

    ------------------------------------------------
       NWT REQUIRED            6 OUTER ITERATIONS 
       AND A TOTAL OF         11 INNER ITERATIONS.
    ------------------------------------------------

 NO OUTPUT CONTROL FOR STRESS PERIOD   46   TIME STEP    6
 
 SOLVING FOR HEAD 
                                                   Max.-Head-Change                         Max.-Flux-Residual
  Residual-Control   Outer-Iter.   Inner-Iter.     Column Row Layer    Maximum-Head-Change  Column Row Layer    Maximum-Flux-Residual          L2-NORM 
          0                 1           2             5    7     1       0.3968474762E-01       5    6    1         0.2124381423E+01      0.5539778526E+01
          0                 2           2             5    7     1      -0.3860232836E-02       5    6    1        -0.2124365872E+00      0.5550629020E+00
          0                 3           2             4    7     1      -0.3458101114E-01       4    7    1        -0.1856020505E+01      0.4565909858E+01
          0                 4           2             4    7     1       0.3624747214E-01       4    7    1         0.1999854235E+01      0.4898914612E+01
          0                 5           2             4    7     1      -0.1442670516E-02       5    8    1        -0.8183844561E-01      0.2004829148E+00
          0                 6           1             4    7     1       0.1780194716E-04       5    8    1         0.1038233304E-02      0.2547259429E-02

    ------------------------------------------------
       NWT REQUIRED            6 OUTER ITERATIONS 
       AND A TOTAL OF         11 INNER ITERATIONS.
    ------------------------------------------------

 NO OUTPUT CONTROL FOR STRESS PERIOD   46   TIME STEP    7
 
 SOLVING FOR HEAD 
                                                   Max.-Head-Change                         Max.-Flux-Residual
  Residual-Control   Outer-Iter.   Inner-Iter.     Column Row Layer    Maximum-Head-Change  Column Row Layer    Maximum-Flux-Residual          L2-NORM 
          0                 1           2             5    7     1       0.3886879875E-01       5    7    1         0.2062483794E+01      0.5387518653E+01
          0                 2           2             5    7     1      -0.3780865656E-02       5    7    1        -0.2062478133E+00      0.5398689446E+00
          0                 3           2             4    7     1      -0.3458247314E-01       4    7    1        -0.1856088833E+01      0.4566780444E+01
          0                 4           2             4    7     1       0.3624757830E-01       5    8    1         0.1999860293E+01      0.4898976286E+01
          0                 5           2             4    7     1      -0.1442674740E-02       5    8    1        -0.8184004283E-01      0.2004854050E+00
          0                 6           1             4    7     1       0.1780199958E-04       5    8    1         0.1038253391E-02      0.2547258675E-02

    ------------------------------------------------
       NWT REQUIRED            6 OUTER ITERATIONS 
       AND A TOTAL OF         11 INNER ITERATIONS.
    ------------------------------------------------

 NO OUTPUT CONTROL FOR STRESS PERIOD   46   TIME STEP    8
 
 SOLVING FOR HEAD 
                                                   Max.-Head-Change                         Max.-Flux-Residual
  Residual-Control   Outer-Iter.   Inner-Iter.     Column Row Layer    Maximum-Head-Change  Column Row Layer    Maximum-Flux-Residual          L2-NORM 
          0                 1           2             5    7     1       0.3806877478E-01       5    7    1         0.2020079029E+01      0.5242803063E+01
          0                 2           2             5    7     1      -0.3703047235E-02       5    7    1        -0.2020074790E+00      0.5254294878E+00
          0                 3           2             4    7     1      -0.3458409928E-01       5    8    1        -0.1856256667E+01      0.4567618642E+01
          0                 4           2             4    7     1       0.3624769146E-01       5    8    1         0.1999897257E+01      0.4899035351E+01
          0                 5           2             4    7     1      -0.1442679243E-02       5    8    1        -0.8184154263E-01      0.2004877819E+00
          0                 6           1             4    7     1       0.1780205559E-04       5    8    1         0.1038272258E-02      0.2547306332E-02

    ------------------------------------------------
       NWT REQUIRED            6 OUTER ITERATIONS 
       AND A TOTAL OF         11 INNER ITERATIONS.
    ------------------------------------------------

 NO OUTPUT CONTROL FOR STRESS PERIOD   46   TIME STEP    9
 
 SOLVING FOR HEAD 
                                                   Max.-Head-Change                         Max.-Flux-Residual
  Residual-Control   Outer-Iter.   Inner-Iter.     Column Row Layer    Maximum-Head-Change  Column Row Layer    Maximum-Flux-Residual          L2-NORM 
          0                 1           2             4    7     1       0.3729352484E-01       5    7    1         0.1978499954E+01      0.5105123446E+01
          0                 2           2             4    7     1      -0.3627643126E-02       5    7    1        -0.1978496955E+00      0.5116942037E+00
          0                 3           2             4    7     1      -0.3458587607E-01       5    8    1        -0.1856754302E+01      0.4568425763E+01
          0                 4           2             4    7     1       0.3624781519E-01       5    8    1         0.1999932231E+01      0.4899092532E+01
          0                 5           2             4    7     1      -0.1442684167E-02       5    8    1        -0.8184296172E-01      0.2004900719E+00
          0                 6           1             4    7     1       0.1780211585E-04       5    8    1         0.1038290119E-02      0.2547332829E-02

    ------------------------------------------------
       NWT REQUIRED            6 OUTER ITERATIONS 
       AND A TOTAL OF         11 INNER ITERATIONS.
    ------------------------------------------------

 NO OUTPUT CONTROL FOR STRESS PERIOD   46   TIME STEP   10
 
 SOLVING FOR HEAD 
                                                   Max.-Head-Change                         Max.-Flux-Residual
  Residual-Control   Outer-Iter.   Inner-Iter.     Column Row Layer    Maximum-Head-Change  Column Row Layer    Maximum-Flux-Residual          L2-NORM 
          0                 1           2             4    7     1       0.3701259994E-01       5    7    1         0.1937768266E+01      0.4973998166E+01
          0                 2           2             4    7     1      -0.3600318740E-02       5    7    1        -0.1937766349E+00      0.4986142744E+00
          0                 3           2             4    7     1      -0.3458778985E-01       5    8    1        -0.1857223623E+01      0.4569204137E+01
          0                 4           2             4    7     1       0.3624794653E-01       5    8    1         0.1999965236E+01      0.4899147663E+01
          0                 5           2             4    7     1      -0.1442689393E-02       5    8    1        -0.8184430100E-01      0.2004923013E+00
          0                 6           1             4    7     1       0.1780218037E-04       5    8    1         0.1038306964E-02      0.2547353672E-02

    ------------------------------------------------
       NWT REQUIRED            6 OUTER ITERATIONS 
       AND A TOTAL OF         11 INNER ITERATIONS.
    ------------------------------------------------

 NO OUTPUT CONTROL FOR STRESS PERIOD   46   TIME STEP   11
 
 SOLVING FOR HEAD 
                                                   Max.-Head-Change                         Max.-Flux-Residual
  Residual-Control   Outer-Iter.   Inner-Iter.     Column Row Layer    Maximum-Head-Change  Column Row Layer    Maximum-Flux-Residual          L2-NORM 
          0                 1           2             4    7     1       0.3671355840E-01       4    7    1         0.1923127957E+01      0.4848995135E+01
          0                 2           2             4    7     1      -0.3571231890E-02       4    7    1        -0.1923130737E+00      0.4861468451E+00
          0                 3           2             4    7     1      -0.3458982316E-01       5    8    1        -0.1857666352E+01      0.4569953818E+01
          0                 4           2             4    7     1       0.3624808228E-01       5    8    1         0.1999996274E+01      0.4899200486E+01
          0                 5           2             4    7     1      -0.1442694795E-02       5    8    1        -0.8184556051E-01      0.2004944319E+00
          0                 6           1             4    7     1       0.1780224680E-04       5    8    1         0.1038322810E-02      0.2547383310E-02

    ------------------------------------------------
       NWT REQUIRED            6 OUTER ITERATIONS 
       AND A TOTAL OF         11 INNER ITERATIONS.
    ------------------------------------------------

 NO OUTPUT CONTROL FOR STRESS PERIOD   46   TIME STEP   12
 
 SOLVING FOR HEAD 
                                                   Max.-Head-Change                         Max.-Flux-Residual
  Residual-Control   Outer-Iter.   Inner-Iter.     Column Row Layer    Maximum-Head-Change  Column Row Layer    Maximum-Flux-Residual          L2-NORM 
          0                 1           2             4    7     1       0.3639785015E-01       4    7    1         0.1907579058E+01      0.4729702854E+01
          0                 2           2             4    7     1      -0.3540523631E-02       4    7    1        -0.1907582866E+00      0.4742508869E+00
          0                 3           2             4    7     1      -0.3459197069E-01       5    8    1        -0.1858084642E+01      0.4570677365E+01
          0                 4           2             4    7     1       0.3624822651E-01       5    8    1         0.2000025733E+01      0.4899251751E+01
          0                 5           2             4    7     1      -0.1442700535E-02       5    8    1        -0.8184675599E-01      0.2004964885E+00
          0                 6           1             4    7     1       0.1780231748E-04       5    8    1         0.1038337858E-02      0.2547400960E-02

    ------------------------------------------------
       NWT REQUIRED            6 OUTER ITERATIONS 
       AND A TOTAL OF         11 INNER ITERATIONS.
    ------------------------------------------------

 NO OUTPUT CONTROL FOR STRESS PERIOD   46   TIME STEP   13
 
 SOLVING FOR HEAD 
                                                   Max.-Head-Change                         Max.-Flux-Residual
  Residual-Control   Outer-Iter.   Inner-Iter.     Column Row Layer    Maximum-Head-Change  Column Row Layer    Maximum-Flux-Residual          L2-NORM 
          0                 1           2             4    7     1       0.3606763250E-01       4    7    1         0.1891188021E+01      0.4615763076E+01
          0                 2           2             4    7     1      -0.3508403825E-02       4    7    1        -0.1891192740E+00      0.4628902435E+00
          0                 3           2             4    7     1      -0.3459421567E-01       5    8    1        -0.1858479972E+01      0.4571375274E+01
          0                 4           2             4    7     1       0.3624837606E-01       5    8    1         0.2000053596E+01      0.4899301201E+01
          0                 5           2             4    7     1      -0.1442706486E-02       5    8    1        -0.8184788679E-01      0.2004984742E+00
          0                 6           1             4    7     1       0.1780239164E-04       5    8    1         0.1038352073E-02      0.2547419490E-02

    ------------------------------------------------
       NWT REQUIRED            6 OUTER ITERATIONS 
       AND A TOTAL OF         11 INNER ITERATIONS.
    ------------------------------------------------

 NO OUTPUT CONTROL FOR STRESS PERIOD   46   TIME STEP   14
 
 SOLVING FOR HEAD 
                                                   Max.-Head-Change                         Max.-Flux-Residual
  Residual-Control   Outer-Iter.   Inner-Iter.     Column Row Layer    Maximum-Head-Change  Column Row Layer    Maximum-Flux-Residual          L2-NORM 
          0                 1           2             4    7     1       0.3572411250E-01       4    7    1         0.1874022665E+01      0.4506812115E+01
          0                 2           2             4    7     1      -0.3474989902E-02       4    7    1        -0.1874028186E+00      0.4520285993E+00
          0                 3           2             4    7     1      -0.3459654553E-01       5    8    1        -0.1858853638E+01      0.4572048707E+01
          0                 4           2             4    7     1       0.3624852583E-01       5    8    1         0.2000079714E+01      0.4899348344E+01
          0                 5           2             4    7     1      -0.1442712447E-02       5    8    1        -0.8184894672E-01      0.2005003493E+00
          0                 6           1             4    7     1       0.1780246501E-04       5    8    1         0.1038365426E-02      0.2547436910E-02

    ------------------------------------------------
       NWT REQUIRED            6 OUTER ITERATIONS 
       AND A TOTAL OF         11 INNER ITERATIONS.
    ------------------------------------------------

 NO OUTPUT CONTROL FOR STRESS PERIOD   46   TIME STEP   15
 
 SOLVING FOR HEAD 
                                                   Max.-Head-Change                         Max.-Flux-Residual
  Residual-Control   Outer-Iter.   Inner-Iter.     Column Row Layer    Maximum-Head-Change  Column Row Layer    Maximum-Flux-Residual          L2-NORM 
          0                 1           2             4    7     1       0.3536895733E-01       4    7    1         0.1856174930E+01      0.4402552501E+01
          0                 2           2             4    7     1      -0.3440444047E-02       4    7    1        -0.1856181156E+00      0.4416367411E+00
          0                 3           2             4    7     1      -0.3459895792E-01       5    8    1        -0.1859207583E+01      0.4572699354E+01
          0                 4           2             4    7     1       0.3624868444E-01       5    8    1         0.2000104700E+01      0.4899394462E+01
          0                 5           2             4    7     1      -0.1442718759E-02       5    8    1        -0.8184996088E-01      0.2005022075E+00
          0                 6           1             4    7     1       0.1780254263E-04       5    8    1         0.1038378181E-02      0.2547458509E-02

    ------------------------------------------------
       NWT REQUIRED            6 OUTER ITERATIONS 
       AND A TOTAL OF         11 INNER ITERATIONS.
    ------------------------------------------------

 NO OUTPUT CONTROL FOR STRESS PERIOD   46   TIME STEP   16
 
 SOLVING FOR HEAD 
                                                   Max.-Head-Change                         Max.-Flux-Residual
  Residual-Control   Outer-Iter.   Inner-Iter.     Column Row Layer    Maximum-Head-Change  Column Row Layer    Maximum-Flux-Residual          L2-NORM 
          0                 1           2             4    7     1       0.3500358440E-01       4    7    1         0.1837723920E+01      0.4302681487E+01
          0                 2           2             4    7     1      -0.3404904147E-02       4    7    1        -0.1837730760E+00      0.4316838835E+00
          0                 3           2             4    7     1      -0.3460143663E-01       5    8    1        -0.1859542696E+01      0.4573327643E+01
          0                 4           2             4    7     1       0.3624884439E-01       5    8    1         0.2000128258E+01      0.4899438721E+01
          0                 5           2             4    7     1      -0.1442725124E-02       5    8    1        -0.8185091703E-01      0.2005039913E+00
          0                 6           1             4    7     1       0.1780262138E-04       5    8    1         0.1038390210E-02      0.2547474426E-02

    ------------------------------------------------
       NWT REQUIRED            6 OUTER ITERATIONS 
       AND A TOTAL OF         11 INNER ITERATIONS.
    ------------------------------------------------

 NO OUTPUT CONTROL FOR STRESS PERIOD   46   TIME STEP   17
 
 SOLVING FOR HEAD 
                                                   Max.-Head-Change                         Max.-Flux-Residual
  Residual-Control   Outer-Iter.   Inner-Iter.     Column Row Layer    Maximum-Head-Change  Column Row Layer    Maximum-Flux-Residual          L2-NORM 
          0                 1           2             4    7     1       0.3462918110E-01       4    7    1         0.1818735783E+01      0.4206943110E+01
          0                 2           2             4    7     1      -0.3368485714E-02       4    7    1        -0.1818743154E+00      0.4221444014E+00
          0                 3           2             4    7     1      -0.3460397811E-01       5    8    1        -0.1859860478E+01      0.4573935173E+01
          0                 4           2             4    7     1       0.3624900984E-01       5    8    1         0.2000150730E+01      0.4899482149E+01
          0                 5           2             4    7     1      -0.1442731709E-02       5    8    1        -0.8185182924E-01      0.2005057810E+00
          0                 6           1             4    7     1       0.1780270270E-04       5    8    1         0.1038401688E-02      0.2547506174E-02

    ------------------------------------------------
       NWT REQUIRED            6 OUTER ITERATIONS 
       AND A TOTAL OF         11 INNER ITERATIONS.
    ------------------------------------------------

 NO OUTPUT CONTROL FOR STRESS PERIOD   46   TIME STEP   18
 
 SOLVING FOR HEAD 
                                                   Max.-Head-Change                         Max.-Flux-Residual
  Residual-Control   Outer-Iter.   Inner-Iter.     Column Row Layer    Maximum-Head-Change  Column Row Layer    Maximum-Flux-Residual          L2-NORM 
          0                 1           2             4    7     1       0.3424711575E-01       4    7    1         0.1799286767E+01      0.4115074527E+01
          0                 2           2             4    7     1      -0.3331321861E-02       4    7    1        -0.1799294595E+00      0.4129921838E+00
          0                 3           2             4    7     1      -0.3460657090E-01       5    8    1        -0.1860161974E+01      0.4574522784E+01
          0                 4           2             4    7     1       0.3624917796E-01       5    8    1         0.2000172069E+01      0.4899523814E+01
          0                 5           2             4    7     1      -0.1442738400E-02       5    8    1        -0.8185269549E-01      0.2005074587E+00
          0                 6           1             4    7     1       0.1780278492E-04       5    8    1         0.1038412609E-02      0.2547559905E-02

    ------------------------------------------------
       NWT REQUIRED            6 OUTER ITERATIONS 
       AND A TOTAL OF         11 INNER ITERATIONS.
    ------------------------------------------------

 NO OUTPUT CONTROL FOR STRESS PERIOD   46   TIME STEP   19
 
 SOLVING FOR HEAD 
                                                   Max.-Head-Change                         Max.-Flux-Residual
  Residual-Control   Outer-Iter.   Inner-Iter.     Column Row Layer    Maximum-Head-Change  Column Row Layer    Maximum-Flux-Residual          L2-NORM 
          0                 1           2             4    7     1       0.3385839428E-01       4    7    1         0.1779433134E+01      0.4026850388E+01
          0                 2           2             4    7     1      -0.3293510448E-02       4    7    1        -0.1779441350E+00      0.4042046328E+00
          0                 3           2             4    7     1      -0.3460920603E-01       5    8    1        -0.1860448034E+01      0.4575090808E+01
          0                 4           2             4    7     1       0.3624934604E-01       5    8    1         0.2000192217E+01      0.4899563815E+01
          0                 5           2             4    7     1      -0.1442745089E-02       5    8    1        -0.8185351338E-01      0.2005090559E+00
          0                 6           1             4    7     1       0.1780286725E-04       5    8    1         0.1038422905E-02      0.2547536595E-02

    ------------------------------------------------
       NWT REQUIRED            6 OUTER ITERATIONS 
       AND A TOTAL OF         11 INNER ITERATIONS.
    ------------------------------------------------

 NO OUTPUT CONTROL FOR STRESS PERIOD   46   TIME STEP   20
 
 SOLVING FOR HEAD 
                                                   Max.-Head-Change                         Max.-Flux-Residual
  Residual-Control   Outer-Iter.   Inner-Iter.     Column Row Layer    Maximum-Head-Change  Column Row Layer    Maximum-Flux-Residual          L2-NORM 
          0                 1           2             4    7     1       0.3346408180E-01       4    7    1         0.1759234382E+01      0.3942056209E+01
          0                 2           2             4    7     1      -0.3255152732E-02       4    7    1        -0.1759242924E+00      0.3955999726E+00
          0                 3           2             4    7     1      -0.3461189350E-01       5    8    1        -0.1860750871E+01      0.4575653113E+01
          0                 4           2             4    7     1       0.3624952911E-01       5    8    1         0.2001921094E+01      0.4900301317E+01
          0                 5           2             4    7     1      -0.1442750141E-02       5    6    1        -0.8185066458E-01      0.2003820131E+00
          0                 6           1             4    7     1       0.1780293010E-04       5    6    1         0.1038350696E-02      0.2546007000E-02

    ------------------------------------------------
       NWT REQUIRED            6 OUTER ITERATIONS 
       AND A TOTAL OF         11 INNER ITERATIONS.
    ------------------------------------------------

 NO OUTPUT CONTROL FOR STRESS PERIOD   46   TIME STEP   21
 
 SOLVING FOR HEAD 
                                                   Max.-Head-Change                         Max.-Flux-Residual
  Residual-Control   Outer-Iter.   Inner-Iter.     Column Row Layer    Maximum-Head-Change  Column Row Layer    Maximum-Flux-Residual          L2-NORM 
          0                 1           2             4    7     1       0.3306531805E-01       4    7    1         0.1738753204E+01      0.3860605670E+01
          0                 2           2             4    7     1      -0.3216366665E-02       4    7    1        -0.1738762016E+00      0.3876510899E+00
          0                 3           2             4    7     1      -0.3461459551E-01       5    8    1        -0.1860976197E+01      0.4576171458E+01
          0                 4           2             4    7     1       0.3624968969E-01       5    8    1         0.2000533457E+01      0.4899764076E+01
          0                 5           2             4    7     1      -0.1442746077E-02       5    6    1        -0.8185141418E-01      0.1997970036E+00
          0                 6           1             4    7     1       0.1780287969E-04       5    6    1         0.1038360141E-02      0.2539084573E-02

    ------------------------------------------------
       NWT REQUIRED            6 OUTER ITERATIONS 
       AND A TOTAL OF         11 INNER ITERATIONS.
    ------------------------------------------------

 NO OUTPUT CONTROL FOR STRESS PERIOD   46   TIME STEP   22
 
 SOLVING FOR HEAD 
                                                   Max.-Head-Change                         Max.-Flux-Residual
  Residual-Control   Outer-Iter.   Inner-Iter.     Column Row Layer    Maximum-Head-Change  Column Row Layer    Maximum-Flux-Residual          L2-NORM 
          0                 1           2             4    7     1       0.3266274096E-01       4    7    1         0.1718026288E+01      0.3782574099E+01
          0                 2           2             4    7     1      -0.3177207222E-02       4    7    1        -0.1718035317E+00      0.3798832998E+00
          0                 3           2             4    7     1      -0.3461732531E-01       5    8    1        -0.1861213160E+01      0.4576683356E+01
          0                 4           2             4    7     1       0.3624987759E-01       5    8    1         0.2000242391E+01      0.4899674644E+01
          0                 5           2             4    7     1      -0.1442766258E-02       5    8    1        -0.8185629276E-01      0.2005135324E+00
          0                 6           1             4    7     1       0.1780312870E-04       5    8    1         0.1038432354E-02      0.2547558295E-02

    ------------------------------------------------
       NWT REQUIRED            6 OUTER ITERATIONS 
       AND A TOTAL OF         11 INNER ITERATIONS.
    ------------------------------------------------

 NO OUTPUT CONTROL FOR STRESS PERIOD   46   TIME STEP   23
 
 SOLVING FOR HEAD 
                                                   Max.-Head-Change                         Max.-Flux-Residual
  Residual-Control   Outer-Iter.   Inner-Iter.     Column Row Layer    Maximum-Head-Change  Column Row Layer    Maximum-Flux-Residual          L2-NORM 
          0                 1           2             4    7     1       0.3225747877E-01       4    7    1         0.1697116461E+01      0.3707377689E+01
          0                 2           2             4    7     1      -0.3137786524E-02       4    7    1        -0.1697125663E+00      0.3723993653E+00
          0                 3           2             4    7     1      -0.3462007291E-01       5    8    1        -0.1861439355E+01      0.4577179179E+01
          0                 4           2             4    7     1       0.3625005316E-01       5    8    1         0.2000258499E+01      0.4899709850E+01
          0                 5           2             4    7     1      -0.1442773246E-02       5    8    1        -0.8185694936E-01      0.2005149329E+00
          0                 6           1             4    7     1       0.1780321484E-04       5    8    1         0.1038440643E-02      0.2547566457E-02

    ------------------------------------------------
       NWT REQUIRED            6 OUTER ITERATIONS 
       AND A TOTAL OF         11 INNER ITERATIONS.
    ------------------------------------------------

 NO OUTPUT CONTROL FOR STRESS PERIOD   46   TIME STEP   24
 
 SOLVING FOR HEAD 
                                                   Max.-Head-Change                         Max.-Flux-Residual
  Residual-Control   Outer-Iter.   Inner-Iter.     Column Row Layer    Maximum-Head-Change  Column Row Layer    Maximum-Flux-Residual          L2-NORM 
          0                 1           2             4    7     1       0.3185004110E-01       4    7    1         0.1676052719E+01      0.3634864819E+01
          0                 2           2             4    7     1      -0.3098154148E-02       4    7    1        -0.1676062051E+00      0.3651842137E+00
          0                 3           2             4    7     1      -0.3462283045E-01       5    8    1        -0.1861655140E+01      0.4577659375E+01
          0                 4           2             4    7     1       0.3625022467E-01       5    8    1         0.2000273644E+01      0.4899743384E+01
          0                 5           2             4    7     1      -0.1442780072E-02       5    8    1        -0.8185756672E-01      0.2005162732E+00
          0                 6           1             4    7     1       0.1780329908E-04       5    8    1         0.1038448448E-02      0.2547575549E-02

    ------------------------------------------------
       NWT REQUIRED            6 OUTER ITERATIONS 
       AND A TOTAL OF         11 INNER ITERATIONS.
    ------------------------------------------------

 NO OUTPUT CONTROL FOR STRESS PERIOD   46   TIME STEP   25
 
 SOLVING FOR HEAD 
                                                   Max.-Head-Change                         Max.-Flux-Residual
  Residual-Control   Outer-Iter.   Inner-Iter.     Column Row Layer    Maximum-Head-Change  Column Row Layer    Maximum-Flux-Residual          L2-NORM 
          0                 1           2             4    7     1       0.3144128917E-01       4    7    1         0.1654883519E+01      0.3564891541E+01
          0                 2           2             4    7     1      -0.3058393875E-02       4    7    1        -0.1654892944E+00      0.3582231347E+00
          0                 3           2             4    7     1      -0.3462560100E-01       5    8    1        -0.1861861546E+01      0.4578125591E+01
          0                 4           2             4    7     1       0.3625040101E-01       5    8    1         0.2000288376E+01      0.4899776509E+01
          0                 5           2             4    7     1      -0.1442787090E-02       5    8    1        -0.8185816733E-01      0.2005175973E+00
          0                 6           1             4    7     1       0.1780338589E-04       5    8    1         0.1038456042E-02      0.2547577526E-02

    ------------------------------------------------
       NWT REQUIRED            6 OUTER ITERATIONS 
       AND A TOTAL OF         11 INNER ITERATIONS.
    ------------------------------------------------

 NO OUTPUT CONTROL FOR STRESS PERIOD   46   TIME STEP   26
 
 SOLVING FOR HEAD 
                                                   Max.-Head-Change                         Max.-Flux-Residual
  Residual-Control   Outer-Iter.   Inner-Iter.     Column Row Layer    Maximum-Head-Change  Column Row Layer    Maximum-Flux-Residual          L2-NORM 
          0                 1           2             4    7     1       0.3103201642E-01       4    7    1         0.1633653515E+01      0.3497327294E+01
          0                 2           2             4    7     1      -0.3018583013E-02       4    7    1        -0.1633663000E+00      0.3515034271E+00
          0                 3           2             4    7     1      -0.3462837207E-01       5    8    1        -0.1862058787E+01      0.4578577543E+01
          0                 4           2             4    7     1       0.3625057455E-01       5    8    1         0.2000302351E+01      0.4899807672E+01
          0                 5           2             4    7     1      -0.1442794114E-02       5    8    1        -0.8185873714E-01      0.2005190763E+00
          0                 6           1             4    7     1       0.1780347124E-04       5    8    1         0.1038463252E-02      0.2547602934E-02

    ------------------------------------------------
       NWT REQUIRED            6 OUTER ITERATIONS 
       AND A TOTAL OF         11 INNER ITERATIONS.
    ------------------------------------------------

 NO OUTPUT CONTROL FOR STRESS PERIOD   46   TIME STEP   27
 
 SOLVING FOR HEAD 
                                                   Max.-Head-Change                         Max.-Flux-Residual
  Residual-Control   Outer-Iter.   Inner-Iter.     Column Row Layer    Maximum-Head-Change  Column Row Layer    Maximum-Flux-Residual          L2-NORM 
          0                 1           2             4    7     1       0.3062255622E-01       4    7    1         0.1612381802E+01      0.3432049920E+01
          0                 2           2             4    7     1      -0.2978753921E-02       4    7    1        -0.1612391316E+00      0.3450129921E+00
          0                 3           2             4    7     1      -0.3463114606E-01       5    8    1        -0.1862247636E+01      0.4579016427E+01
          0                 4           2             4    7     1       0.3625075022E-01       5    8    1         0.2000315861E+01      0.4899838599E+01
          0                 5           2             4    7     1      -0.1442801532E-02       5    8    1        -0.8185928807E-01      0.2005210979E+00
          0                 6           1             4    7     1       0.1780356332E-04       5    8    1         0.1038470182E-02      0.2547587908E-02

    ------------------------------------------------
       NWT REQUIRED            6 OUTER ITERATIONS 
       AND A TOTAL OF         11 INNER ITERATIONS.
    ------------------------------------------------

 NO OUTPUT CONTROL FOR STRESS PERIOD   46   TIME STEP   28
 
 SOLVING FOR HEAD 
                                                   Max.-Head-Change                         Max.-Flux-Residual
  Residual-Control   Outer-Iter.   Inner-Iter.     Column Row Layer    Maximum-Head-Change  Column Row Layer    Maximum-Flux-Residual          L2-NORM 
          0                 1           2             4    7     1       0.3021360594E-01       4    7    1         0.1591107707E+01      0.3368943078E+01
          0                 2           2             4    7     1      -0.2938974205E-02       4    7    1        -0.1591117224E+00      0.3387393675E+00
          0                 3           2             4    7     1      -0.3463391193E-01       5    8    1        -0.1862428232E+01      0.4579441905E+01
          0                 4           2             4    7     1       0.3625092037E-01       5    8    1         0.2000328558E+01      0.4899868262E+01
          0                 5           2             4    7     1      -0.1442808304E-02       5    8    1        -0.8185980590E-01      0.2005222712E+00
          0                 6           1             4    7     1       0.1780364666E-04       5    8    1         0.1038476763E-02      0.2547636817E-02

    ------------------------------------------------
       NWT REQUIRED            6 OUTER ITERATIONS 
       AND A TOTAL OF         11 INNER ITERATIONS.
    ------------------------------------------------

 NO OUTPUT CONTROL FOR STRESS PERIOD   46   TIME STEP   29
 
 SOLVING FOR HEAD 
                                                   Max.-Head-Change                         Max.-Flux-Residual
  Residual-Control   Outer-Iter.   Inner-Iter.     Column Row Layer    Maximum-Head-Change  Column Row Layer    Maximum-Flux-Residual          L2-NORM 
          0                 1           2             4    7     1       0.2980566972E-01       4    7    1         0.1569860054E+01      0.3307893768E+01
          0                 2           2             4    7     1      -0.2899293093E-02       4    7    1        -0.1569869551E+00      0.3326719967E+00
          0                 3           2             4    7     1      -0.3463667517E-01       5    8    1        -0.1862601408E+01      0.4579855561E+01
          0                 4           2             4    7     1       0.3625109450E-01       5    8    1         0.2000340978E+01      0.4899897694E+01
          0                 5           2             4    7     1      -0.1442815234E-02       5    8    1        -0.8186031251E-01      0.2005234450E+00
          0                 6           1             4    7     1       0.1780373224E-04       5    8    1         0.1038483154E-02      0.2547643293E-02

    ------------------------------------------------
       NWT REQUIRED            6 OUTER ITERATIONS 
       AND A TOTAL OF         11 INNER ITERATIONS.
    ------------------------------------------------

 NO OUTPUT CONTROL FOR STRESS PERIOD   46   TIME STEP   30



 STREAM LISTING     PERIOD     46   STEP       30

 LAYER ROW COL. STREAM  RCH.  FLOW INTO     FLOW TO   FLOW OUT OF   OVRLND.     DIRECT     STREAM       STREAM     STREAM     STREAM   STREAMBED  STREAMBED
                SEG.NO.  NO.  STRM. RCH.    AQUIFER    STRM. RCH.    RUNOFF     PRECIP       ET          HEAD       DEPTH      WIDTH   CONDCTNC.   GRADIENT

   1    1    1     1     1    1.8749E+01  2.1264E-01   1.8537E+01  0.000E+00  0.000E+00  0.000E+00  1.09413E+03  1.078E+00  1.159E+01  5.215E-02  1.359E+00
   1    2    2     1     2    1.8537E+01  3.2801E-01   1.8209E+01  0.000E+00  0.000E+00  0.000E+00  1.08913E+03  1.073E+00  1.150E+01  8.053E-02  1.358E+00
   1    3    3     1     3    1.8209E+01  2.7848E-01   1.7930E+01  0.000E+00  0.000E+00  0.000E+00  1.08349E+03  1.068E+00  1.141E+01  6.845E-02  1.356E+00
   1    3    4     1     4    1.7930E+01  2.5541E-01   1.7675E+01  0.000E+00  0.000E+00  0.000E+00  1.07847E+03  1.064E+00  1.132E+01  6.285E-02  1.355E+00
   1    4    5     2     1    1.5675E+01  3.0476E-01   1.5370E+01  0.000E+00  0.000E+00  0.000E+00  1.07284E+03  9.072E-01  1.200E+01  7.800E-02  1.302E+00
   1    5    6     2     2    1.5370E+01  2.3387E-01   1.5136E+01  0.000E+00  0.000E+00  0.000E+00  1.06741E+03  8.978E-01  1.200E+01  6.000E-02  1.299E+00
   1    6    6     2     3    1.5136E+01  2.3337E-01   1.4903E+01  0.000E+00  0.000E+00  0.000E+00  1.06268E+03  8.895E-01  1.200E+01  6.000E-02  1.296E+00
   1    7    6     2     4    1.4903E+01  2.3287E-01   1.4670E+01  0.000E+00  0.000E+00  0.000E+00  1.05796E+03  8.812E-01  1.200E+01  6.000E-02  1.294E+00
   1    8    6     2     5    1.4670E+01  2.3237E-01   1.4438E+01  0.000E+00  0.000E+00  0.000E+00  1.05323E+03  8.728E-01  1.200E+01  6.000E-02  1.291E+00
   1    3    5     3     1    2.0000E+00  2.8252E-01   1.7175E+00  0.000E+00  0.000E+00  0.000E+00  1.07555E+03  1.909E+00  9.636E+00  7.227E-02  1.955E+00
   1    3    6     3     2    1.7175E+00  2.4905E-01   1.4684E+00  0.000E+00  0.000E+00  0.000E+00  1.07264E+03  1.727E+00  8.909E+00  6.682E-02  1.864E+00
   1    3    7     3     3    1.4684E+00  1.9718E-01   1.2712E+00  0.000E+00  0.000E+00  0.000E+00  1.06987E+03  1.555E+00  8.218E+00  5.547E-02  1.777E+00
   1    4    8     3     4    1.2712E+00  2.2567E-01   1.0456E+00  0.000E+00  0.000E+00  0.000E+00  1.06682E+03  1.364E+00  7.455E+00  6.709E-02  1.682E+00
   1    5    8     3     5    1.0456E+00  1.5790E-01   8.8768E-01  0.000E+00  0.000E+00  0.000E+00  1.06362E+03  1.164E+00  6.655E+00  4.991E-02  1.582E+00
   1    6    8     3     6    8.8768E-01  5.5980E-02   8.3170E-01  0.000E+00  0.000E+00  0.000E+00  1.06158E+03  1.036E+00  6.145E+00  1.844E-02  1.518E+00
   1    5   10     4     1    1.0000E+01  9.0919E-02   9.9091E+00  0.000E+00  0.000E+00  0.000E+00  1.07836E+03  6.368E-01  1.000E+01  2.500E-02  1.212E+00
   1    5    9     4     2    9.9091E+00  1.8158E-01   9.7275E+00  0.000E+00  0.000E+00  0.000E+00  1.07154E+03  6.315E-01  1.000E+01  5.000E-02  1.211E+00
   1    6    8     4     3    9.7275E+00  1.2689E-01   9.6006E+00  0.000E+00  0.000E+00  0.000E+00  1.06381E+03  6.256E-01  1.000E+01  3.500E-02  1.209E+00
   1    6    8     5     1    1.0432E+01  2.2686E-01   1.0205E+01  0.000E+00  0.000E+00  0.000E+00  1.05868E+03  6.790E-01  1.542E+01  6.166E-02  1.226E+00
   1    7    7     5     2    1.0205E+01  2.7894E-01   9.9265E+00  0.000E+00  0.000E+00  0.000E+00  1.05417E+03  6.732E-01  1.519E+01  7.594E-02  1.224E+00
   1    8    7     5     3    9.9265E+00  1.9221E-01   9.7343E+00  0.000E+00  0.000E+00  0.000E+00  1.04992E+03  6.676E-01  1.497E+01  5.241E-02  1.223E+00
   1    8    6     5     4    9.7343E+00  1.3577E-01   9.5985E+00  0.000E+00  0.000E+00  0.000E+00  1.04691E+03  6.637E-01  1.482E+01  3.706E-02  1.221E+00
   1    9    6     6     1    1.2817E+01  2.2880E-01   1.2588E+01  0.000E+00  0.000E+00  0.000E+00  1.04354E+03  8.134E-01  1.200E+01  6.000E-02  1.271E+00
   1   10    7     6     2    1.2588E+01  2.2827E-01   1.2360E+01  0.000E+00  0.000E+00  0.000E+00  1.03899E+03  8.046E-01  1.200E+01  6.000E-02  1.268E+00
   1   11    7     6     3    1.2360E+01  2.2774E-01   1.2132E+01  0.000E+00  0.000E+00  0.000E+00  1.03443E+03  7.957E-01  1.200E+01  6.000E-02  1.265E+00
   1   12    7     6     4    1.2132E+01  2.2721E-01   1.1905E+01  0.000E+00  0.000E+00  0.000E+00  1.02988E+03  7.868E-01  1.200E+01  6.000E-02  1.262E+00
   1   13    7     6     5    1.1905E+01 -5.6096E-02   1.1961E+01  0.000E+00  0.000E+00  0.000E+00  1.02669E+03  7.835E-01  1.200E+01  2.400E-01 -7.791E-02
   1   14    9     7     1    1.5000E+02  1.3512E+00   1.4865E+02  0.000E+00  0.000E+00  0.000E+00  1.03987E+03  2.288E+00  5.529E+01  5.593E-01  8.053E-01
   1   13    8     7     2    1.4865E+02  1.8794E+00   1.4677E+02  0.000E+00  0.000E+00  0.000E+00  1.03478E+03  2.279E+00  5.526E+01  6.148E-01  1.019E+00
   1   13    7     7     3    1.4677E+02  1.5429E+00   1.4523E+02  0.000E+00  0.000E+00  0.000E+00  1.02969E+03  2.270E+00  5.521E+01  5.584E-01  9.210E-01
   1   13    6     8     1    1.5719E+02  9.1626E-01   1.5627E+02  0.000E+00  0.000E+00  0.000E+00  1.02474E+03  2.864E+00  4.152E+01  4.231E-01  7.218E-01
   1   13    5     8     2    1.5627E+02  1.7969E-01   1.5609E+02  0.000E+00  0.000E+00  0.000E+00  1.01848E+03  2.860E+00  4.147E+01  4.226E-01  1.417E-01
   1   13    4     8     3    1.5609E+02 -2.4051E+00   1.5850E+02  0.000E+00  0.000E+00  0.000E+00  1.01224E+03  2.867E+00  4.158E+01  4.237E+00 -1.892E-01
   1   13    3     8     4    1.5850E+02 -3.6186E+00   1.6211E+02  0.000E+00  0.000E+00  0.000E+00  1.00601E+03  2.888E+00  4.187E+01  4.267E+00 -2.827E-01
   1   13    2     8     5    1.6211E+02 -2.5674E+00   1.6468E+02  0.000E+00  0.000E+00  0.000E+00  9.99784E+02  2.909E+00  4.218E+01  4.298E+00 -1.991E-01
   1   13    1     8     6    1.6468E+02 -1.9748E+00   1.6666E+02  0.000E+00  0.000E+00  0.000E+00  9.94799E+02  2.924E+00  4.239E+01  2.592E+00 -2.539E-01
   1    8    6     9     1    1.1220E+01  0.0000E+00   1.1220E+01  0.000E+00  0.000E+00  0.000E+00  1.08118E+03  2.428E+00  4.000E+00  0.000E+00  1.809E+00
   1    8    5     9     2    1.1220E+01  0.0000E+00   1.1220E+01  0.000E+00  0.000E+00  0.000E+00  1.08068E+03  2.428E+00  4.000E+00  0.000E+00  1.809E+00





UNSATURATED ZONE PACKAGE VOLUMETRIC BUDGET FOR  TIME STEP    30 STRESS PERIOD   46
  ------------------------------------------------------------------------------



     CUMULATIVE VOLUMES      L**3       RATES FOR THIS TIME STEP      L**3/T
     ------------------                 ------------------------

           IN:                                      IN:
           ---                                      ---
        INFILTRATION =  1845687946.3006          INFILTRATION =          12.0672

          OUT:                                     OUT:
          ----                                     ----
              UZF ET =  1699786130.3484                UZF ET =          12.0675
        UZF RECHARGE =       73224.0000          UZF RECHARGE =       0.0000E+00

            IN - OUT =   145828591.9522              IN - OUT =      -2.6464E-04

          STORAGE:                                 STORAGE:
          --------                                 --------
      STORAGE CHANGE =   145829944.5046        STORAGE CHANGE =      -2.6540E-04

 PERCENT DISCREPANCY IS DIFFERENCE BETWEEN IN-OUT MINUS CHANGE IN STORAGE
 DIVIDED BY THE AVERAGE OF IN AND OUT TIMES 100

 PERCENT DISCREPANCY =          -0.00     PERCENT DISCREPANCY =           0.00






1
  VOLUMETRIC BUDGET FOR AGRICULTURAL FIELDS AT  END OF TIME STEP   30, STRESS PERIOD  46
  ------------------------------------------------------------------------------

     CUMULATIVE VOLUMES      L**3       RATES FOR THIS TIME STEP      L**3/T
     ------------------                 ------------------------

           IN:                                      IN:
           ---                                      ---
               AG WELLS  =   520990304.0000                 AG WELLS  =           0.0000
      DIVERSION SEGMENTS =  1224384128.0000        DIVERSION SEGMENTS =          11.2195
       IRRIGATION PONDS  =           0.0000         IRRIGATION PONDS  =           0.0000
           GW IRRIGATION =           0.0000             GW IRRIGATION =           0.0000
           SW IRRIGATION =           0.0000             SW IRRIGATION =           0.0000
        SYSTEM LOSSES GW =           0.0000          SYSTEM LOSSES GW =           0.0000
        SYSTEM LOSSES SW =           0.0000          SYSTEM LOSSES SW =           0.0000

                TOTAL IN =  1745374464.0000                  TOTAL IN =          11.2195

          OUT:                                     OUT:
          ----                                     ----
               AG WELLS  =           0.0000                 AG WELLS  =           0.0000
      DIVERSION SEGMENTS =           0.0000        DIVERSION SEGMENTS =           0.0000
       IRRIGATION PONDS  =           0.0000         IRRIGATION PONDS  =           0.0000
           GW IRRIGATION =   520990304.0000             GW IRRIGATION =           0.0000
           SW IRRIGATION =  1224405248.0000             SW IRRIGATION =          11.2197
        SYSTEM LOSSES GW =           0.0000          SYSTEM LOSSES GW =           0.0000
        SYSTEM LOSSES SW =           0.0000          SYSTEM LOSSES SW =           0.0000

               TOTAL OUT =  1745395584.0000                 TOTAL OUT =          11.2197

                IN - OUT =      -21120.0000                  IN - OUT =      -2.2411E-04

     PERCENT DISCREPANCY =          -0.00         PERCENT DISCREPANCY =          -0.00



1
  VOLUMETRIC BUDGET FOR ENTIRE MODEL AT END OF TIME STEP   30, STRESS PERIOD  46
  ------------------------------------------------------------------------------

     CUMULATIVE VOLUMES      L**3       RATES FOR THIS TIME STEP      L**3/T
     ------------------                 ------------------------

           IN:                                      IN:
           ---                                      ---
             STORAGE     =   845008896.0000               STORAGE     =           6.6428
       CONSTANT HEAD     =           0.0000         CONSTANT HEAD     =           0.0000
     HEAD DEP BOUNDS     =    33874640.0000       HEAD DEP BOUNDS     =           0.2868
      STREAM LEAKAGE     =  1422926592.0000        STREAM LEAKAGE     =          11.4948
        UZF RECHARGE     =       73223.9531          UZF RECHARGE     =           0.0000
               GW ET     =           0.0000                 GW ET     =           0.0000
     SURFACE LEAKAGE     =           0.0000       SURFACE LEAKAGE     =           0.0000
           AG WELLS      =           0.0000             AG WELLS      =           0.0000

                TOTAL IN =  2301883392.0000                  TOTAL IN =          18.4243

          OUT:                                     OUT:
          ----                                     ----
             STORAGE     =   475755744.0000               STORAGE     =           7.5149
       CONSTANT HEAD     =           0.0000         CONSTANT HEAD     =           0.0000
     HEAD DEP BOUNDS     =    34425000.0000       HEAD DEP BOUNDS     =           0.2873
      STREAM LEAKAGE     =  1267377280.0000        STREAM LEAKAGE     =          10.6220
        UZF RECHARGE     =           0.0000          UZF RECHARGE     =           0.0000
               GW ET     =     3343843.5000                 GW ET     =           0.0000
     SURFACE LEAKAGE     =           0.0000       SURFACE LEAKAGE     =           0.0000
           AG WELLS      =   520990304.0000             AG WELLS      =           0.0000

               TOTAL OUT =  2301892096.0000                 TOTAL OUT =          18.4243

                IN - OUT =       -8704.0000                  IN - OUT =       9.5367E-05

     PERCENT DISCREPANCY =          -0.00         PERCENT DISCREPANCY =           0.00






         TIME SUMMARY AT END OF TIME STEP   30 IN STRESS PERIOD   46
                    SECONDS     MINUTES      HOURS       DAYS        YEARS
                    -----------------------------------------------------------
   TIME STEP LENGTH  87667.      1461.1      24.352      1.0147     2.77799E-03
 STRESS PERIOD TIME 2.63000E+06  43833.      730.56      30.440     8.33397E-02
         TOTAL TIME 1.18435E+08 1.97392E+06  32899.      1370.8      3.7530    
1
1
                            STRESS PERIOD NO.   47, LENGTH =   2630000.    
                            -----------------------------------------------

                              NUMBER OF TIME STEPS =    30

                               MULTIPLIER FOR DELT =     1.000

                            INITIAL TIME STEP SIZE =   87666.66    

 REUSING NON-PARAMETER GHB CELLS FROM LAST STRESS PERIOD

      2 GHB CELLS

 REUSING STREAM SEGMENT DATA FROM LAST STRESS PERIOD



            AREAL INFILTRATION RATE
 READING ON UNIT   19 WITH FORMAT: (FREE)              

            1           2           3           4           5           6           7           8           9          10
 ........................................................................................................................
   1   1.0000E-10  2.0000E-10   0.000       0.000       0.000       0.000       0.000       0.000       0.000       0.000    
   2   2.0000E-10  1.0000E-10  2.0000E-10   0.000       0.000      8.0000E-10  8.0000E-10  5.0000E-10   0.000       0.000    
   3    0.000      5.0000E-10  1.0000E-10  1.0000E-10  8.0000E-10  8.0000E-10  5.0000E-10  5.0000E-10   0.000       0.000    
   4   8.0000E-10  5.0000E-10  1.0000E-10  1.0000E-10  1.0000E-10  1.0000E-10  1.0000E-10  1.0000E-10  2.0000E-10   0.000    
   5   8.0000E-10  5.0000E-10  1.0000E-10  1.0000E-10  1.0000E-10  1.0000E-10  1.0000E-10  1.0000E-10  1.0000E-10  1.0000E-10
   6   8.0000E-10  5.0000E-10  5.0000E-10  2.0000E-10  2.0000E-10  1.0000E-10  1.0000E-10  1.0000E-10  1.0000E-10  5.0000E-10
   7   8.0000E-10  5.0000E-10  5.0000E-10  2.0000E-10  2.0000E-10  1.0000E-10  1.0000E-10  2.0000E-10  2.0000E-10   0.000    
   8    0.000      5.0000E-10  5.0000E-10  2.0000E-10  2.0000E-10  1.0000E-10  1.0000E-10  2.0000E-10  5.0000E-10   0.000    
   9    0.000      5.0000E-10  5.0000E-10  2.0000E-10  2.0000E-10  1.0000E-10  1.0000E-10  2.0000E-10  5.0000E-10   0.000    
  10    0.000      5.0000E-10  5.0000E-10  2.0000E-10  2.0000E-10  1.0000E-10  1.0000E-10  2.0000E-10  5.0000E-10  8.0000E-10
  11    0.000      1.0000E-10  1.0000E-10  1.0000E-10  1.0000E-10  1.0000E-10  1.0000E-10  2.0000E-10  5.0000E-10   0.000    
  12   1.0000E-10  1.0000E-10  1.0000E-10  1.0000E-10  1.0000E-10  1.0000E-10  1.0000E-10  1.0000E-10  2.0000E-10   0.000    
  13   1.0000E-10  1.0000E-10  2.0000E-10  2.0000E-10  2.0000E-10  2.0000E-10  2.0000E-10  1.0000E-10  1.0000E-10   0.000    
  14    0.000      2.0000E-10  5.0000E-10  5.0000E-10  5.0000E-10  5.0000E-10  5.0000E-10  2.0000E-10  1.0000E-10   0.000    
  15    0.000       0.000      8.0000E-10  8.0000E-10  8.0000E-10  8.0000E-10   0.000       0.000       0.000       0.000    

                  ET RATE =  5.000000E-09

 USING ET EXTINCTION DEPTH FROM PREVIOUS STRESS PERIOD. CURRENT PERIOD IS:      47

 USING EXTINCTION WATER CONTENT FROM PREVIOUS STRESS PERIOD. CURRENT PERIOD IS:      47

 USING AIR ENTRY PRESSURE FROM PREVIOUS STRESS PERIOD. CURRENT PERIOD IS:      47

 USING ROOT PRESSURE HEAD FROM PREVIOUS STRESS PERIOD. CURRENT PERIOD IS:      47

 USING ROOT ACTIVITY FROM PREVIOUS STRESS PERIOD. CURRENT PERIOD IS:      47

 PROCESSING AG STRESS PERIOD DATA

 READING AG STRESS PERIOD DATA

 READING IRRIGATION SEGMENT

 READING IRRIGATION WELL

 READING SUPPLEMENTAL WELL

 NO IRRPOND OR REUSING IRRPOND DATA FROM LAST STRESS PERIOD

 END PROCESSING AG STRESS PERIOD DATA OPTIONS
 
 SOLVING FOR HEAD 
                                                   Max.-Head-Change                         Max.-Flux-Residual
  Residual-Control   Outer-Iter.   Inner-Iter.     Column Row Layer    Maximum-Head-Change  Column Row Layer    Maximum-Flux-Residual          L2-NORM 
          0                 1           2             4    7     1       0.2939920898E-01       4    7    1         0.1548664973E+01      0.3245064362E+01
          0                 2           2             4    7     1      -0.2859755278E-02       4    7    1        -0.1548674321E+00      0.3258953327E+00
          0                 3           2             4    7     1       0.1947385966E-03       4    7    1         0.1084071608E-01      0.2279953444E-01
          0                 4           1             4    7     1      -0.7748831229E-05       4    7    1        -0.4433859531E-03      0.9317173048E-03

    ------------------------------------------------
       NWT REQUIRED            4 OUTER ITERATIONS 
       AND A TOTAL OF          7 INNER ITERATIONS.
    ------------------------------------------------

 NO OUTPUT CONTROL FOR STRESS PERIOD   47   TIME STEP    1
 
 SOLVING FOR HEAD 
                                                   Max.-Head-Change                         Max.-Flux-Residual
  Residual-Control   Outer-Iter.   Inner-Iter.     Column Row Layer    Maximum-Head-Change  Column Row Layer    Maximum-Flux-Residual          L2-NORM 
          0                 1           2             4    7     1       0.2899464656E-01       4    7    1         0.1527546376E+01      0.3187000956E+01
          0                 2           2             4    7     1      -0.2820402289E-02       4    7    1        -0.1527555663E+00      0.3185615442E+00
          0                 3           2             5    8     1      -0.2045940595E-02       5    8    1        -0.1126032008E+00      0.2735193615E+00
          0                 4           2             4    7     1       0.2305971587E-02       5    8    1         0.1274798874E+00      0.3120105667E+00
          0                 5           1             4    7     1      -0.9178433932E-04       5    6    1        -0.5216722871E-02      0.1276720418E-01

    ------------------------------------------------
       NWT REQUIRED            5 OUTER ITERATIONS 
       AND A TOTAL OF          9 INNER ITERATIONS.
    ------------------------------------------------

 NO OUTPUT CONTROL FOR STRESS PERIOD   47   TIME STEP    2
 
 SOLVING FOR HEAD 
                                                   Max.-Head-Change                         Max.-Flux-Residual
  Residual-Control   Outer-Iter.   Inner-Iter.     Column Row Layer    Maximum-Head-Change  Column Row Layer    Maximum-Flux-Residual          L2-NORM 
          0                 1           2             4    7     1       0.2859237396E-01       4    7    1         0.1506526579E+01      0.3127923641E+01
          0                 2           2             4    7     1      -0.2781272013E-02       4    7    1        -0.1506535790E+00      0.3126710542E+00
          0                 3           2             5    8     1      -0.2049189186E-02       5    8    1        -0.1127837672E+00      0.2739782338E+00
          0                 4           2             4    7     1       0.2306704490E-02       5    8    1         0.1275207465E+00      0.3121108638E+00
          0                 5           1             4    7     1      -0.9181543615E-04       5    6    1        -0.5218523636E-02      0.1277116255E-01

    ------------------------------------------------
       NWT REQUIRED            5 OUTER ITERATIONS 
       AND A TOTAL OF          9 INNER ITERATIONS.
    ------------------------------------------------

 NO OUTPUT CONTROL FOR STRESS PERIOD   47   TIME STEP    3
 
 SOLVING FOR HEAD 
                                                   Max.-Head-Change                         Max.-Flux-Residual
  Residual-Control   Outer-Iter.   Inner-Iter.     Column Row Layer    Maximum-Head-Change  Column Row Layer    Maximum-Flux-Residual          L2-NORM 
          0                 1           2             4    7     1       0.2819272461E-01       4    7    1         0.1485625133E+01      0.3070947257E+01
          0                 2           2             4    7     1      -0.2742396886E-02       4    7    1        -0.1485634252E+00      0.3069881579E+00
          0                 3           2             5    8     1      -0.2052276288E-02       5    8    1        -0.1129552863E+00      0.2744184720E+00
          0                 4           2             4    7     1       0.2307376936E-02       5    8    1         0.1275579114E+00      0.3122025075E+00
          0                 5           1             4    7     1      -0.9183309101E-04       5    6    1        -0.5219546877E-02      0.1277332691E-01

    ------------------------------------------------
       NWT REQUIRED            5 OUTER ITERATIONS 
       AND A TOTAL OF          9 INNER ITERATIONS.
    ------------------------------------------------

 NO OUTPUT CONTROL FOR STRESS PERIOD   47   TIME STEP    4
 
 SOLVING FOR HEAD 
                                                   Max.-Head-Change                         Max.-Flux-Residual
  Residual-Control   Outer-Iter.   Inner-Iter.     Column Row Layer    Maximum-Head-Change  Column Row Layer    Maximum-Flux-Residual          L2-NORM 
          0                 1           2             4    7     1       0.2779588102E-01       4    7    1         0.1464852340E+01      0.3015951774E+01
          0                 2           2             4    7     1      -0.2703794665E-02       4    7    1        -0.1464861354E+00      0.3015015613E+00
          0                 3           2             5    6     1      -0.2055352891E-02       5    8    1        -0.1131191514E+00      0.2748429529E+00
          0                 4           2             4    7     1       0.2308015271E-02       5    8    1         0.1275928605E+00      0.3122892131E+00
          0                 5           1             4    7     1      -0.9186042371E-04       5    6    1        -0.5221104305E-02      0.1277713669E-01

    ------------------------------------------------
       NWT REQUIRED            5 OUTER ITERATIONS 
       AND A TOTAL OF          9 INNER ITERATIONS.
    ------------------------------------------------

 NO OUTPUT CONTROL FOR STRESS PERIOD   47   TIME STEP    5
 
 SOLVING FOR HEAD 
                                                   Max.-Head-Change                         Max.-Flux-Residual
  Residual-Control   Outer-Iter.   Inner-Iter.     Column Row Layer    Maximum-Head-Change  Column Row Layer    Maximum-Flux-Residual          L2-NORM 
          0                 1           2             4    7     1       0.2740239768E-01       4    7    1         0.1444239719E+01      0.2962809393E+01
          0                 2           2             4    7     1      -0.2665519291E-02       4    7    1        -0.1444248619E+00      0.2961985575E+00
          0                 3           2             5    6     1      -0.2058303534E-02       5    8    1        -0.1132759310E+00      0.2752527419E+00
          0                 4           2             4    7     1       0.2308617516E-02       5    8    1         0.1276255293E+00      0.3123699890E+00
          0                 5           1             4    7     1      -0.9188386771E-04       5    8    1        -0.5221865370E-02      0.1277954584E-01

    ------------------------------------------------
       NWT REQUIRED            5 OUTER ITERATIONS 
       AND A TOTAL OF          9 INNER ITERATIONS.
    ------------------------------------------------

 NO OUTPUT CONTROL FOR STRESS PERIOD   47   TIME STEP    6
 
 SOLVING FOR HEAD 
                                                   Max.-Head-Change                         Max.-Flux-Residual
  Residual-Control   Outer-Iter.   Inner-Iter.     Column Row Layer    Maximum-Head-Change  Column Row Layer    Maximum-Flux-Residual          L2-NORM 
          0                 1           2             4    7     1       0.2701250649E-01       4    7    1         0.1423801319E+01      0.2909381110E+01
          0                 2           2             4    7     1      -0.2627593998E-02       4    7    1        -0.1423810459E+00      0.2908885090E+00
          0                 3           2             5    6     1      -0.2061132765E-02       5    8    1        -0.1134258401E+00      0.2756744391E+00
          0                 4           2             4    7     1       0.2309186912E-02       5    8    1         0.1276554079E+00      0.3124463029E+00
          0                 5           1             4    7     1      -0.9190617964E-04       5    8    1        -0.5222343230E-02      0.1278222080E-01

    ------------------------------------------------
       NWT REQUIRED            5 OUTER ITERATIONS 
       AND A TOTAL OF          9 INNER ITERATIONS.
    ------------------------------------------------

 NO OUTPUT CONTROL FOR STRESS PERIOD   47   TIME STEP    7
 
 SOLVING FOR HEAD 
                                                   Max.-Head-Change                         Max.-Flux-Residual
  Residual-Control   Outer-Iter.   Inner-Iter.     Column Row Layer    Maximum-Head-Change  Column Row Layer    Maximum-Flux-Residual          L2-NORM 
          0                 1           2             4    7     1       0.2662614563E-01       4    7    1         0.1403534461E+01      0.2859335877E+01
          0                 2           2             4    7     1      -0.2590010937E-02       4    7    1        -0.1403543208E+00      0.2859037106E+00
          0                 3           2             5    6     1      -0.2063850382E-02       5    8    1        -0.1135698500E+00      0.2760766492E+00
          0                 4           2             4    7     1       0.2309728745E-02       5    8    1         0.1276842630E+00      0.3125187608E+00
          0                 5           1             4    7     1      -0.9192862075E-04       5    8    1        -0.5223573349E-02      0.1278530070E-01

    ------------------------------------------------
       NWT REQUIRED            5 OUTER ITERATIONS 
       AND A TOTAL OF          9 INNER ITERATIONS.
    ------------------------------------------------

 NO OUTPUT CONTROL FOR STRESS PERIOD   47   TIME STEP    8
 
 SOLVING FOR HEAD 
                                                   Max.-Head-Change                         Max.-Flux-Residual
  Residual-Control   Outer-Iter.   Inner-Iter.     Column Row Layer    Maximum-Head-Change  Column Row Layer    Maximum-Flux-Residual          L2-NORM 
          0                 1           2             4    7     1       0.2624366058E-01       4    7    1         0.1383457992E+01      0.2811788906E+01
          0                 2           2             4    7     1      -0.2552805362E-02       4    7    1        -0.1383466601E+00      0.2811524486E+00
          0                 3           2             5    6     1      -0.2066453854E-02       5    8    1        -0.1137079861E+00      0.2764436400E+00
          0                 4           2             4    7     1       0.2310241695E-02       5    8    1         0.1277113087E+00      0.3125868673E+00
          0                 5           1             4    7     1      -0.9195183910E-04       5    8    1        -0.5224838738E-02      0.1278847764E-01

    ------------------------------------------------
       NWT REQUIRED            5 OUTER ITERATIONS 
       AND A TOTAL OF          9 INNER ITERATIONS.
    ------------------------------------------------

 NO OUTPUT CONTROL FOR STRESS PERIOD   47   TIME STEP    9
 
 SOLVING FOR HEAD 
                                                   Max.-Head-Change                         Max.-Flux-Residual
  Residual-Control   Outer-Iter.   Inner-Iter.     Column Row Layer    Maximum-Head-Change  Column Row Layer    Maximum-Flux-Residual          L2-NORM 
          0                 1           2             4    7     1       0.2586536113E-01       4    7    1         0.1363589827E+01      0.2765610109E+01
          0                 2           2             4    7     1      -0.2516006924E-02       4    7    1        -0.1363598292E+00      0.2765375377E+00
          0                 3           2             5    6     1      -0.2068952180E-02       5    8    1        -0.1138405139E+00      0.2767987586E+00
          0                 4           2             4    7     1       0.2310729516E-02       5    8    1         0.1277367696E+00      0.3126512469E+00
          0                 5           1             4    7     1      -0.9197107940E-04       5    8    1        -0.5225870402E-02      0.1279108827E-01

    ------------------------------------------------
       NWT REQUIRED            5 OUTER ITERATIONS 
       AND A TOTAL OF          9 INNER ITERATIONS.
    ------------------------------------------------

 NO OUTPUT CONTROL FOR STRESS PERIOD   47   TIME STEP   10
 
 SOLVING FOR HEAD 
                                                   Max.-Head-Change                         Max.-Flux-Residual
  Residual-Control   Outer-Iter.   Inner-Iter.     Column Row Layer    Maximum-Head-Change  Column Row Layer    Maximum-Flux-Residual          L2-NORM 
          0                 1           2             4    7     1       0.2549139684E-01       4    7    1         0.1343938676E+01      0.2720747410E+01
          0                 2           2             4    7     1      -0.2479629979E-02       4    7    1        -0.1343946887E+00      0.2720537444E+00
          0                 3           2             5    6     1      -0.2071350664E-02       5    8    1        -0.1139677247E+00      0.2771430120E+00
          0                 4           2             4    7     1       0.2311193206E-02       5    8    1         0.1277607133E+00      0.3127120620E+00
          0                 5           1             4    7     1      -0.9198603105E-04       5    8    1        -0.5226651238E-02      0.1279308264E-01

    ------------------------------------------------
       NWT REQUIRED            5 OUTER ITERATIONS 
       AND A TOTAL OF          9 INNER ITERATIONS.
    ------------------------------------------------

 NO OUTPUT CONTROL FOR STRESS PERIOD   47   TIME STEP   11
 
 SOLVING FOR HEAD 
                                                   Max.-Head-Change                         Max.-Flux-Residual
  Residual-Control   Outer-Iter.   Inner-Iter.     Column Row Layer    Maximum-Head-Change  Column Row Layer    Maximum-Flux-Residual          L2-NORM 
          0                 1           2             4    7     1       0.2512162854E-01       4    7    1         0.1324497586E+01      0.2677126192E+01
          0                 2           2             4    7     1      -0.2443661376E-02       4    7    1        -0.1324505645E+00      0.2676938886E+00
          0                 3           2             5    6     1      -0.2073656418E-02       5    8    1        -0.1140898949E+00      0.2774763558E+00
          0                 4           2             4    7     1       0.2311635866E-02       5    8    1         0.1277833232E+00      0.3127697454E+00
          0                 5           1             4    7     1      -0.9200399941E-04       5    8    1        -0.5227596088E-02      0.1279549991E-01

    ------------------------------------------------
       NWT REQUIRED            5 OUTER ITERATIONS 
       AND A TOTAL OF          9 INNER ITERATIONS.
    ------------------------------------------------

 NO OUTPUT CONTROL FOR STRESS PERIOD   47   TIME STEP   12
 
 SOLVING FOR HEAD 
                                                   Max.-Head-Change                         Max.-Flux-Residual
  Residual-Control   Outer-Iter.   Inner-Iter.     Column Row Layer    Maximum-Head-Change  Column Row Layer    Maximum-Flux-Residual          L2-NORM 
          0                 1           2             4    7     1       0.2475644897E-01       4    7    1         0.1305288755E+01      0.2634702195E+01
          0                 2           2             4    7     1      -0.2408139322E-02       4    7    1        -0.1305296762E+00      0.2634537648E+00
          0                 3           2             5    6     1      -0.2075872174E-02       5    8    1        -0.1142073414E+00      0.2778001029E+00
          0                 4           2             4    7     1       0.2312056348E-02       5    8    1         0.1278045643E+00      0.3128241807E+00
          0                 5           1             4    7     1      -0.9201985896E-04       5    8    1        -0.5228415383E-02      0.1279759619E-01

    ------------------------------------------------
       NWT REQUIRED            5 OUTER ITERATIONS 
       AND A TOTAL OF          9 INNER ITERATIONS.
    ------------------------------------------------

 NO OUTPUT CONTROL FOR STRESS PERIOD   47   TIME STEP   13
 
 SOLVING FOR HEAD 
                                                   Max.-Head-Change                         Max.-Flux-Residual
  Residual-Control   Outer-Iter.   Inner-Iter.     Column Row Layer    Maximum-Head-Change  Column Row Layer    Maximum-Flux-Residual          L2-NORM 
          0                 1           2             4    7     1       0.2439595157E-01       4    7    1         0.1286317842E+01      0.2593429068E+01
          0                 2           2             4    7     1      -0.2373072380E-02       4    7    1        -0.1286325617E+00      0.2593278418E+00
          0                 3           2             5    6     1      -0.2078003628E-02       5    8    1        -0.1143203160E+00      0.2781130866E+00
          0                 4           2             4    7     1       0.2312459298E-02       5    8    1         0.1278247050E+00      0.3128760296E+00
          0                 5           1             4    7     1      -0.9203677240E-04       5    8    1        -0.5229289024E-02      0.1279985302E-01

    ------------------------------------------------
       NWT REQUIRED            5 OUTER ITERATIONS 
       AND A TOTAL OF          9 INNER ITERATIONS.
    ------------------------------------------------

 NO OUTPUT CONTROL FOR STRESS PERIOD   47   TIME STEP   14
 
 SOLVING FOR HEAD 
                                                   Max.-Head-Change                         Max.-Flux-Residual
  Residual-Control   Outer-Iter.   Inner-Iter.     Column Row Layer    Maximum-Head-Change  Column Row Layer    Maximum-Flux-Residual          L2-NORM 
          0                 1           2             4    7     1       0.2404007798E-01       4    7    1         0.1267582335E+01      0.2553251015E+01
          0                 2           2             4    7     1      -0.2338455647E-02       4    7    1        -0.1267589922E+00      0.2553230141E+00
          0                 3           2             5    6     1      -0.2080055186E-02       5    8    1        -0.1144290010E+00      0.2784173052E+00
          0                 4           2             4    7     1       0.2312842731E-02       5    8    1         0.1278436439E+00      0.3129250101E+00
          0                 5           1             4    7     1      -0.9205133249E-04       5    8    1        -0.5230024074E-02      0.1280174725E-01

    ------------------------------------------------
       NWT REQUIRED            5 OUTER ITERATIONS 
       AND A TOTAL OF          9 INNER ITERATIONS.
    ------------------------------------------------

 NO OUTPUT CONTROL FOR STRESS PERIOD   47   TIME STEP   15
 
 SOLVING FOR HEAD 
                                                   Max.-Head-Change                         Max.-Flux-Residual
  Residual-Control   Outer-Iter.   Inner-Iter.     Column Row Layer    Maximum-Head-Change  Column Row Layer    Maximum-Flux-Residual          L2-NORM 
          0                 1           2             4    7     1       0.2368903213E-01       4    7    1         0.1249093899E+01      0.2514116025E+01
          0                 2           2             4    7     1      -0.2304307864E-02       4    7    1        -0.1249101326E+00      0.2513994306E+00
          0                 3           2             5    6     1      -0.2082030523E-02       5    8    1        -0.1145337091E+00      0.2787123205E+00
          0                 4           2             4    7     1       0.2313208982E-02       5    8    1         0.1278615345E+00      0.3129714936E+00
          0                 5           1             4    7     1      -0.9206573451E-04       5    8    1        -0.5230746034E-02      0.1280361890E-01

    ------------------------------------------------
       NWT REQUIRED            5 OUTER ITERATIONS 
       AND A TOTAL OF          9 INNER ITERATIONS.
    ------------------------------------------------

 NO OUTPUT CONTROL FOR STRESS PERIOD   47   TIME STEP   16
 
 SOLVING FOR HEAD 
                                                   Max.-Head-Change                         Max.-Flux-Residual
  Residual-Control   Outer-Iter.   Inner-Iter.     Column Row Layer    Maximum-Head-Change  Column Row Layer    Maximum-Flux-Residual          L2-NORM 
          0                 1           2             4    7     1       0.2334286348E-01       4    7    1         0.1230855811E+01      0.2475984012E+01
          0                 2           2             4    7     1      -0.2270636085E-02       4    7    1        -0.1230863737E+00      0.2475876386E+00
          0                 3           2             5    6     1      -0.2083932327E-02       5    8    1        -0.1146344674E+00      0.2789985940E+00
          0                 4           2             4    7     1       0.2313559882E-02       5    8    1         0.1278784829E+00      0.3130157570E+00
          0                 5           1             4    7     1      -0.9208057598E-04       5    8    1        -0.5231489065E-02      0.1280557139E-01

    ------------------------------------------------
       NWT REQUIRED            5 OUTER ITERATIONS 
       AND A TOTAL OF          9 INNER ITERATIONS.
    ------------------------------------------------

 NO OUTPUT CONTROL FOR STRESS PERIOD   47   TIME STEP   17
 
 SOLVING FOR HEAD 
                                                   Max.-Head-Change                         Max.-Flux-Residual
  Residual-Control   Outer-Iter.   Inner-Iter.     Column Row Layer    Maximum-Head-Change  Column Row Layer    Maximum-Flux-Residual          L2-NORM 
          0                 1           2             4    7     1       0.2300160961E-01       4    7    1         0.1212870576E+01      0.2438818861E+01
          0                 2           2             4    7     1      -0.2237439919E-02       4    7    1        -0.1212877682E+00      0.2438721674E+00
          0                 3           2             5    7     1      -0.2085812153E-02       5    8    1        -0.1147319084E+00      0.2792769309E+00
          0                 4           2             4    7     1       0.2313897209E-02       5    8    1         0.1278946031E+00      0.3130580255E+00
          0                 5           1             4    7     1      -0.9209785575E-04       5    8    1        -0.5232367091E-02      0.1280782305E-01

    ------------------------------------------------
       NWT REQUIRED            5 OUTER ITERATIONS 
       AND A TOTAL OF          9 INNER ITERATIONS.
    ------------------------------------------------

 NO OUTPUT CONTROL FOR STRESS PERIOD   47   TIME STEP   18
 
 SOLVING FOR HEAD 
                                                   Max.-Head-Change                         Max.-Flux-Residual
  Residual-Control   Outer-Iter.   Inner-Iter.     Column Row Layer    Maximum-Head-Change  Column Row Layer    Maximum-Flux-Residual          L2-NORM 
          0                 1           2             4    7     1       0.2266529600E-01       4    7    1         0.1195140166E+01      0.2402585008E+01
          0                 2           2             4    7     1      -0.2204725939E-02       4    7    1        -0.1195147327E+00      0.2402496202E+00
          0                 3           2             5    7     1      -0.2087963937E-02       5    6    1        -0.1148270526E+00      0.2795480335E+00
          0                 4           2             4    7     1       0.2314217942E-02       5    6    1         0.1279098383E+00      0.3130979526E+00
          0                 5           1             4    7     1      -0.9210659195E-04       5    8    1        -0.5232757821E-02      0.1280889616E-01

    ------------------------------------------------
       NWT REQUIRED            5 OUTER ITERATIONS 
       AND A TOTAL OF          9 INNER ITERATIONS.
    ------------------------------------------------

 NO OUTPUT CONTROL FOR STRESS PERIOD   47   TIME STEP   19
 
 SOLVING FOR HEAD 
                                                   Max.-Head-Change                         Max.-Flux-Residual
  Residual-Control   Outer-Iter.   Inner-Iter.     Column Row Layer    Maximum-Head-Change  Column Row Layer    Maximum-Flux-Residual          L2-NORM 
          0                 1           2             4    7     1       0.2233380344E-01       4    7    1         0.1177658540E+01      0.2367249618E+01
          0                 2           2             4    7     1      -0.2172480115E-02       4    7    1        -0.1177665327E+00      0.2367168493E+00
          0                 3           2             5    7     1      -0.2090060003E-02       5    6    1        -0.1149213624E+00      0.2798112283E+00
          0                 4           2             4    7     1       0.2314527333E-02       5    6    1         0.1279245348E+00      0.3131362004E+00
          0                 5           1             4    7     1      -0.9211908099E-04       5    6    1        -0.5233363152E-02      0.1281048025E-01

    ------------------------------------------------
       NWT REQUIRED            5 OUTER ITERATIONS 
       AND A TOTAL OF          9 INNER ITERATIONS.
    ------------------------------------------------

 NO OUTPUT CONTROL FOR STRESS PERIOD   47   TIME STEP   20
 
 SOLVING FOR HEAD 
                                                   Max.-Head-Change                         Max.-Flux-Residual
  Residual-Control   Outer-Iter.   Inner-Iter.     Column Row Layer    Maximum-Head-Change  Column Row Layer    Maximum-Flux-Residual          L2-NORM 
          0                 1           2             4    7     1       0.2200741748E-01       4    7    1         0.1160441591E+01      0.2332782635E+01
          0                 2           2             4    7     1      -0.2140731620E-02       4    7    1        -0.1160448324E+00      0.2332708879E+00
          0                 3           2             5    7     1      -0.2092099343E-02       5    6    1        -0.1150125154E+00      0.2800674593E+00
          0                 4           2             4    7     1       0.2314822912E-02       5    6    1         0.1279384191E+00      0.3131725160E+00
          0                 5           1             4    7     1      -0.9213031962E-04       5    6    1        -0.5233901348E-02      0.1281189839E-01

    ------------------------------------------------
       NWT REQUIRED            5 OUTER ITERATIONS 
       AND A TOTAL OF          9 INNER ITERATIONS.
    ------------------------------------------------

 NO OUTPUT CONTROL FOR STRESS PERIOD   47   TIME STEP   21
 
 SOLVING FOR HEAD 
                                                   Max.-Head-Change                         Max.-Flux-Residual
  Residual-Control   Outer-Iter.   Inner-Iter.     Column Row Layer    Maximum-Head-Change  Column Row Layer    Maximum-Flux-Residual          L2-NORM 
          0                 1           2             4    7     1       0.2168585832E-01       4    7    1         0.1143474697E+01      0.2299147988E+01
          0                 2           2             4    7     1      -0.2109452311E-02       4    7    1        -0.1143481199E+00      0.2299080722E+00
          0                 3           2             5    7     1      -0.2094085480E-02       5    6    1        -0.1151004005E+00      0.2803164717E+00
          0                 4           2             4    7     1       0.2315106753E-02       5    6    1         0.1279515830E+00      0.3132071437E+00
          0                 5           1             4    7     1      -0.9214109083E-04       5    6    1        -0.5234410080E-02      0.1281323810E-01

    ------------------------------------------------
       NWT REQUIRED            5 OUTER ITERATIONS 
       AND A TOTAL OF          9 INNER ITERATIONS.
    ------------------------------------------------

 NO OUTPUT CONTROL FOR STRESS PERIOD   47   TIME STEP   22
 
 SOLVING FOR HEAD 
                                                   Max.-Head-Change                         Max.-Flux-Residual
  Residual-Control   Outer-Iter.   Inner-Iter.     Column Row Layer    Maximum-Head-Change  Column Row Layer    Maximum-Flux-Residual          L2-NORM 
          0                 1           2             4    7     1       0.2136939526E-01       4    7    1         0.1126772777E+01      0.2266316755E+01
          0                 2           2             4    7     1      -0.2078668800E-02       4    7    1        -0.1126779095E+00      0.2266255704E+00
          0                 3           2             5    7     1      -0.2096020012E-02       5    6    1        -0.1151855061E+00      0.2805587402E+00
          0                 4           2             4    7     1       0.2315380899E-02       5    6    1         0.1279641797E+00      0.3132403948E+00
          0                 5           1             4    7     1      -0.9215305327E-04       5    6    1        -0.5234985002E-02      0.1281474716E-01

    ------------------------------------------------
       NWT REQUIRED            5 OUTER ITERATIONS 
       AND A TOTAL OF          9 INNER ITERATIONS.
    ------------------------------------------------

 NO OUTPUT CONTROL FOR STRESS PERIOD   47   TIME STEP   23
 
 SOLVING FOR HEAD 
                                                   Max.-Head-Change                         Max.-Flux-Residual
  Residual-Control   Outer-Iter.   Inner-Iter.     Column Row Layer    Maximum-Head-Change  Column Row Layer    Maximum-Flux-Residual          L2-NORM 
          0                 1           2             4    7     1       0.2105800169E-01       4    7    1         0.1110335082E+01      0.2234260520E+01
          0                 2           2             4    7     1      -0.2048378733E-02       4    7    1        -0.1110341389E+00      0.2234204734E+00
          0                 3           2             5    7     1      -0.2097905334E-02       5    6    1        -0.1152677084E+00      0.2807948271E+00
          0                 4           2             4    7     1       0.2315642936E-02       5    6    1         0.1279760665E+00      0.3132719640E+00
          0                 5           1             4    7     1      -0.9216470879E-04       5    6    1        -0.5235540846E-02      0.1281620735E-01

    ------------------------------------------------
       NWT REQUIRED            5 OUTER ITERATIONS 
       AND A TOTAL OF          9 INNER ITERATIONS.
    ------------------------------------------------

 NO OUTPUT CONTROL FOR STRESS PERIOD   47   TIME STEP   24
 
 SOLVING FOR HEAD 
                                                   Max.-Head-Change                         Max.-Flux-Residual
  Residual-Control   Outer-Iter.   Inner-Iter.     Column Row Layer    Maximum-Head-Change  Column Row Layer    Maximum-Flux-Residual          L2-NORM 
          0                 1           2             4    7     1       0.2075137993E-01       4    7    1         0.1094145517E+01      0.2202950681E+01
          0                 2           2             4    7     1      -0.2018553058E-02       4    7    1        -0.1094151933E+00      0.2202900384E+00
          0                 3           2             5    7     1      -0.2099741784E-02       5    6    1        -0.1153472967E+00      0.2810245876E+00
          0                 4           2             4    7     1       0.2315894917E-02       5    6    1         0.1279873655E+00      0.3133021126E+00
          0                 5           1             4    7     1      -0.9218507251E-04       5    6    1        -0.5236589191E-02      0.1281887973E-01

    ------------------------------------------------
       NWT REQUIRED            5 OUTER ITERATIONS 
       AND A TOTAL OF          9 INNER ITERATIONS.
    ------------------------------------------------

 NO OUTPUT CONTROL FOR STRESS PERIOD   47   TIME STEP   25
 
 SOLVING FOR HEAD 
                                                   Max.-Head-Change                         Max.-Flux-Residual
  Residual-Control   Outer-Iter.   Inner-Iter.     Column Row Layer    Maximum-Head-Change  Column Row Layer    Maximum-Flux-Residual          L2-NORM 
          0                 1           2             4    7     1       0.2044978049E-01       4    7    1         0.1078218081E+01      0.2172369430E+01
          0                 2           2             4    7     1      -0.1989214745E-02       4    7    1        -0.1078223978E+00      0.2172320878E+00
          0                 3           2             5    7     1      -0.2101533025E-02       5    6    1        -0.1154243273E+00      0.2812486344E+00
          0                 4           2             4    7     1       0.2316137227E-02       5    6    1         0.1279981030E+00      0.3133309074E+00
          0                 5           1             4    7     1      -0.9218315574E-04       5    6    1        -0.5236372805E-02      0.1281844057E-01

    ------------------------------------------------
       NWT REQUIRED            5 OUTER ITERATIONS 
       AND A TOTAL OF          9 INNER ITERATIONS.
    ------------------------------------------------

 NO OUTPUT CONTROL FOR STRESS PERIOD   47   TIME STEP   26
 
 SOLVING FOR HEAD 
                                                   Max.-Head-Change                         Max.-Flux-Residual
  Residual-Control   Outer-Iter.   Inner-Iter.     Column Row Layer    Maximum-Head-Change  Column Row Layer    Maximum-Flux-Residual          L2-NORM 
          0                 1           2             4    7     1       0.2015316214E-01       4    7    1         0.1062551036E+01      0.2142492373E+01
          0                 2           2             4    7     1      -0.1960361859E-02       4    7    1        -0.1062556898E+00      0.2142448967E+00
          0                 3           2             5    7     1      -0.2103279683E-02       5    6    1        -0.1154989266E+00      0.2814673919E+00
          0                 4           2             4    7     1       0.2316371937E-02       5    6    1         0.1280083995E+00      0.3133586725E+00
          0                 5           1             4    7     1      -0.9219372317E-04       5    6    1        -0.5236863552E-02      0.1281974903E-01

    ------------------------------------------------
       NWT REQUIRED            5 OUTER ITERATIONS 
       AND A TOTAL OF          9 INNER ITERATIONS.
    ------------------------------------------------

 NO OUTPUT CONTROL FOR STRESS PERIOD   47   TIME STEP   27
 
 SOLVING FOR HEAD 
                                                   Max.-Head-Change                         Max.-Flux-Residual
  Residual-Control   Outer-Iter.   Inner-Iter.     Column Row Layer    Maximum-Head-Change  Column Row Layer    Maximum-Flux-Residual          L2-NORM 
          0                 1           2             4    7     1       0.1986134519E-01       4    7    1         0.1047134899E+01      0.2113289717E+01
          0                 2           2             4    7     1      -0.1931976021E-02       4    7    1        -0.1047140729E+00      0.2113250731E+00
          0                 3           2             5    7     1      -0.2104983376E-02       5    6    1        -0.1155712182E+00      0.2816796793E+00
          0                 4           2             4    7     1       0.2316595371E-02       5    6    1         0.1280180626E+00      0.3133848806E+00
          0                 5           1             4    7     1      -0.9220016347E-04       5    6    1        -0.5237119818E-02      0.1282048271E-01

    ------------------------------------------------
       NWT REQUIRED            5 OUTER ITERATIONS 
       AND A TOTAL OF          9 INNER ITERATIONS.
    ------------------------------------------------

 NO OUTPUT CONTROL FOR STRESS PERIOD   47   TIME STEP   28
 
 SOLVING FOR HEAD 
                                                   Max.-Head-Change                         Max.-Flux-Residual
  Residual-Control   Outer-Iter.   Inner-Iter.     Column Row Layer    Maximum-Head-Change  Column Row Layer    Maximum-Flux-Residual          L2-NORM 
          0                 1           2             4    7     1       0.1957442269E-01       4    7    1         0.1031975065E+01      0.2084739905E+01
          0                 2           2             4    7     1      -0.1904065608E-02       4    7    1        -0.1031980502E+00      0.2084702717E+00
          0                 3           2             5    7     1      -0.2106646698E-02       5    6    1        -0.1156414169E+00      0.2818874790E+00
          0                 4           2             4    7     1       0.2316815363E-02       5    6    1         0.1280275246E+00      0.3134105600E+00
          0                 5           1             4    7     1      -0.9221014524E-04       5    6    1        -0.5237576423E-02      0.1282164114E-01

    ------------------------------------------------
       NWT REQUIRED            5 OUTER ITERATIONS 
       AND A TOTAL OF          9 INNER ITERATIONS.
    ------------------------------------------------

 NO OUTPUT CONTROL FOR STRESS PERIOD   47   TIME STEP   29
 
 SOLVING FOR HEAD 
                                                   Max.-Head-Change                         Max.-Flux-Residual
  Residual-Control   Outer-Iter.   Inner-Iter.     Column Row Layer    Maximum-Head-Change  Column Row Layer    Maximum-Flux-Residual          L2-NORM 
          0                 1           2             4    7     1       0.1929220086E-01       4    7    1         0.1017061638E+01      0.2057439737E+01
          0                 2           2             4    7     1      -0.1876612915E-02       4    7    1        -0.1017066938E+00      0.2057429691E+00
          0                 3           2             5    7     1      -0.2108272262E-02       5    6    1        -0.1157095113E+00      0.2821014363E+00
          0                 4           2             4    7     1       0.2317025067E-02       5    6    1         0.1280364170E+00      0.3134349098E+00
          0                 5           1             4    7     1      -0.9222006829E-04       5    6    1        -0.5238029629E-02      0.1282285505E-01

    ------------------------------------------------
       NWT REQUIRED            5 OUTER ITERATIONS 
       AND A TOTAL OF          9 INNER ITERATIONS.
    ------------------------------------------------

 NO OUTPUT CONTROL FOR STRESS PERIOD   47   TIME STEP   30



 STREAM LISTING     PERIOD     47   STEP       30

 LAYER ROW COL. STREAM  RCH.  FLOW INTO     FLOW TO   FLOW OUT OF   OVRLND.     DIRECT     STREAM       STREAM     STREAM     STREAM   STREAMBED  STREAMBED
                SEG.NO.  NO.  STRM. RCH.    AQUIFER    STRM. RCH.    RUNOFF     PRECIP       ET          HEAD       DEPTH      WIDTH   CONDCTNC.   GRADIENT

   1    1    1     1     1    1.5942E+01  1.9373E-01   1.5748E+01  0.000E+00  0.000E+00  0.000E+00  1.09408E+03  1.028E+00  1.069E+01  4.809E-02  1.343E+00
   1    2    2     1     2    1.5748E+01  2.9868E-01   1.5450E+01  0.000E+00  0.000E+00  0.000E+00  1.08908E+03  1.024E+00  1.060E+01  7.423E-02  1.341E+00
   1    3    3     1     3    1.5450E+01  2.5341E-01   1.5196E+01  0.000E+00  0.000E+00  0.000E+00  1.08344E+03  1.018E+00  1.051E+01  6.306E-02  1.339E+00
   1    3    4     1     4    1.5196E+01  2.3228E-01   1.4964E+01  0.000E+00  0.000E+00  0.000E+00  1.07842E+03  1.014E+00  1.043E+01  5.787E-02  1.338E+00
   1    4    5     2     1    1.2964E+01  2.9708E-01   1.2667E+01  0.000E+00  0.000E+00  0.000E+00  1.07274E+03  8.087E-01  1.200E+01  7.800E-02  1.270E+00
   1    5    6     2     2    1.2667E+01  2.2792E-01   1.2439E+01  0.000E+00  0.000E+00  0.000E+00  1.06731E+03  7.987E-01  1.200E+01  6.000E-02  1.266E+00
   1    6    6     2     3    1.2439E+01  2.2740E-01   1.2211E+01  0.000E+00  0.000E+00  0.000E+00  1.06258E+03  7.900E-01  1.200E+01  6.000E-02  1.263E+00
   1    7    6     2     4    1.2211E+01  2.2687E-01   1.1985E+01  0.000E+00  0.000E+00  0.000E+00  1.05786E+03  7.812E-01  1.200E+01  6.000E-02  1.260E+00
   1    8    6     2     5    1.1985E+01  2.2634E-01   1.1758E+01  0.000E+00  0.000E+00  0.000E+00  1.05313E+03  7.724E-01  1.200E+01  6.000E-02  1.257E+00
   1    3    5     3     1    2.0000E+00  2.8252E-01   1.7175E+00  0.000E+00  0.000E+00  0.000E+00  1.07555E+03  1.909E+00  9.636E+00  7.227E-02  1.955E+00
   1    3    6     3     2    1.7175E+00  2.4905E-01   1.4684E+00  0.000E+00  0.000E+00  0.000E+00  1.07264E+03  1.727E+00  8.909E+00  6.682E-02  1.864E+00
   1    3    7     3     3    1.4684E+00  1.9718E-01   1.2712E+00  0.000E+00  0.000E+00  0.000E+00  1.06987E+03  1.555E+00  8.218E+00  5.547E-02  1.777E+00
   1    4    8     3     4    1.2712E+00  2.2567E-01   1.0456E+00  0.000E+00  0.000E+00  0.000E+00  1.06682E+03  1.364E+00  7.455E+00  6.709E-02  1.682E+00
   1    5    8     3     5    1.0456E+00  1.5790E-01   8.8768E-01  0.000E+00  0.000E+00  0.000E+00  1.06362E+03  1.164E+00  6.655E+00  4.991E-02  1.582E+00
   1    6    8     3     6    8.8768E-01  5.5980E-02   8.3170E-01  0.000E+00  0.000E+00  0.000E+00  1.06158E+03  1.036E+00  6.145E+00  1.844E-02  1.518E+00
   1    5   10     4     1    1.0000E+01  9.0919E-02   9.9091E+00  0.000E+00  0.000E+00  0.000E+00  1.07836E+03  6.368E-01  1.000E+01  2.500E-02  1.212E+00
   1    5    9     4     2    9.9091E+00  1.8158E-01   9.7275E+00  0.000E+00  0.000E+00  0.000E+00  1.07154E+03  6.315E-01  1.000E+01  5.000E-02  1.211E+00
   1    6    8     4     3    9.7275E+00  1.2689E-01   9.6006E+00  0.000E+00  0.000E+00  0.000E+00  1.06381E+03  6.256E-01  1.000E+01  3.500E-02  1.209E+00
   1    6    8     5     1    1.0432E+01  2.2686E-01   1.0205E+01  0.000E+00  0.000E+00  0.000E+00  1.05868E+03  6.790E-01  1.542E+01  6.166E-02  1.226E+00
   1    7    7     5     2    1.0205E+01  2.7894E-01   9.9265E+00  0.000E+00  0.000E+00  0.000E+00  1.05417E+03  6.732E-01  1.519E+01  7.594E-02  1.224E+00
   1    8    7     5     3    9.9265E+00  1.9221E-01   9.7343E+00  0.000E+00  0.000E+00  0.000E+00  1.04992E+03  6.676E-01  1.497E+01  5.241E-02  1.223E+00
   1    8    6     5     4    9.7343E+00  1.3577E-01   9.5985E+00  0.000E+00  0.000E+00  0.000E+00  1.04691E+03  6.637E-01  1.482E+01  3.706E-02  1.221E+00
   1    9    6     6     1    2.0637E+01  2.4507E-01   2.0392E+01  0.000E+00  0.000E+00  0.000E+00  1.04381E+03  1.084E+00  1.200E+01  6.000E-02  1.361E+00
   1   10    7     6     2    2.0392E+01  2.4460E-01   2.0148E+01  0.000E+00  0.000E+00  0.000E+00  1.03926E+03  1.077E+00  1.200E+01  6.000E-02  1.359E+00
   1   11    7     6     3    2.0148E+01  2.4413E-01   1.9903E+01  0.000E+00  0.000E+00  0.000E+00  1.03471E+03  1.069E+00  1.200E+01  6.000E-02  1.356E+00
   1   12    7     6     4    1.9903E+01  2.4366E-01   1.9660E+01  0.000E+00  0.000E+00  0.000E+00  1.03015E+03  1.061E+00  1.200E+01  6.000E-02  1.354E+00
   1   13    7     6     5    1.9660E+01  6.1297E-04   1.9659E+01  0.000E+00  0.000E+00  0.000E+00  1.02697E+03  1.057E+00  1.200E+01  2.400E-02  8.513E-03
   1   14    9     7     1    1.5000E+02  1.3518E+00   1.4865E+02  0.000E+00  0.000E+00  0.000E+00  1.03987E+03  2.288E+00  5.529E+01  5.593E-01  8.057E-01
   1   13    8     7     2    1.4865E+02  1.8805E+00   1.4677E+02  0.000E+00  0.000E+00  0.000E+00  1.03478E+03  2.279E+00  5.526E+01  6.148E-01  1.020E+00
   1   13    7     7     3    1.4677E+02  1.5349E+00   1.4523E+02  0.000E+00  0.000E+00  0.000E+00  1.02969E+03  2.270E+00  5.521E+01  5.584E-01  9.162E-01
   1   13    6     8     1    1.6489E+02  9.5273E-01   1.6394E+02  0.000E+00  0.000E+00  0.000E+00  1.02479E+03  2.915E+00  4.227E+01  4.308E-01  7.372E-01
   1   13    5     8     2    1.6394E+02  2.0362E-01   1.6374E+02  0.000E+00  0.000E+00  0.000E+00  1.01854E+03  2.912E+00  4.222E+01  4.302E-01  1.578E-01
   1   13    4     8     3    1.6374E+02 -2.3489E+00   1.6608E+02  0.000E+00  0.000E+00  0.000E+00  1.01229E+03  2.919E+00  4.232E+01  4.313E+00 -1.815E-01
   1   13    3     8     4    1.6608E+02 -3.5924E+00   1.6968E+02  0.000E+00  0.000E+00  0.000E+00  1.00606E+03  2.938E+00  4.261E+01  4.342E+00 -2.758E-01
   1   13    2     8     5    1.6968E+02 -2.5512E+00   1.7223E+02  0.000E+00  0.000E+00  0.000E+00  9.99833E+02  2.958E+00  4.290E+01  4.371E+00 -1.945E-01
   1   13    1     8     6    1.7223E+02 -1.9574E+00   1.7419E+02  0.000E+00  0.000E+00  0.000E+00  9.94848E+02  2.973E+00  4.311E+01  2.636E+00 -2.475E-01
   1    8    6     9     1    7.1961E-01  0.0000E+00   7.1961E-01  0.000E+00  0.000E+00  0.000E+00  1.07922E+03  4.672E-01  4.000E+00  0.000E+00  1.156E+00
   1    8    5     9     2    7.1961E-01  0.0000E+00   7.1961E-01  0.000E+00  0.000E+00  0.000E+00  1.07872E+03  4.672E-01  4.000E+00  0.000E+00  1.156E+00





UNSATURATED ZONE PACKAGE VOLUMETRIC BUDGET FOR  TIME STEP    30 STRESS PERIOD   47
  ------------------------------------------------------------------------------



     CUMULATIVE VOLUMES      L**3       RATES FOR THIS TIME STEP      L**3/T
     ------------------                 ------------------------

           IN:                                      IN:
           ---                                      ---
        INFILTRATION =  1849810342.9622          INFILTRATION =           1.5671

          OUT:                                     OUT:
          ----                                     ----
              UZF ET =  1703908655.2199                UZF ET =           1.5675
        UZF RECHARGE =       73224.0000          UZF RECHARGE =       0.0000E+00

            IN - OUT =   145828463.7422              IN - OUT =      -3.7126E-04

          STORAGE:                                 STORAGE:
          --------                                 --------
      STORAGE CHANGE =   145829816.3044        STORAGE CHANGE =      -3.7127E-04

 PERCENT DISCREPANCY IS DIFFERENCE BETWEEN IN-OUT MINUS CHANGE IN STORAGE
 DIVIDED BY THE AVERAGE OF IN AND OUT TIMES 100

 PERCENT DISCREPANCY =          -0.00     PERCENT DISCREPANCY =           0.00






1
  VOLUMETRIC BUDGET FOR AGRICULTURAL FIELDS AT  END OF TIME STEP   30, STRESS PERIOD  47
  ------------------------------------------------------------------------------

     CUMULATIVE VOLUMES      L**3       RATES FOR THIS TIME STEP      L**3/T
     ------------------                 ------------------------

           IN:                                      IN:
           ---                                      ---
               AG WELLS  =   520990304.0000                 AG WELLS  =       5.9605E-07
      DIVERSION SEGMENTS =  1226277888.0000        DIVERSION SEGMENTS =           0.7196
       IRRIGATION PONDS  =           0.0000         IRRIGATION PONDS  =           0.0000
           GW IRRIGATION =           0.0000             GW IRRIGATION =           0.0000
           SW IRRIGATION =           0.0000             SW IRRIGATION =           0.0000
        SYSTEM LOSSES GW =           0.0000          SYSTEM LOSSES GW =           0.0000
        SYSTEM LOSSES SW =           0.0000          SYSTEM LOSSES SW =           0.0000

                TOTAL IN =  1747268224.0000                  TOTAL IN =           0.7196

          OUT:                                     OUT:
          ----                                     ----
               AG WELLS  =           0.0000                 AG WELLS  =           0.0000
      DIVERSION SEGMENTS =           0.0000        DIVERSION SEGMENTS =           0.0000
       IRRIGATION PONDS  =           0.0000         IRRIGATION PONDS  =           0.0000
           GW IRRIGATION =   520990304.0000             GW IRRIGATION =       5.9605E-07
           SW IRRIGATION =  1226299008.0000             SW IRRIGATION =           0.7196
        SYSTEM LOSSES GW =           0.0000          SYSTEM LOSSES GW =           0.0000
        SYSTEM LOSSES SW =           0.0000          SYSTEM LOSSES SW =           0.0000

               TOTAL OUT =  1747289344.0000                 TOTAL OUT =           0.7196

                IN - OUT =      -21120.0000                  IN - OUT =      -1.4365E-05

     PERCENT DISCREPANCY =          -0.00         PERCENT DISCREPANCY =          -0.00



1
  VOLUMETRIC BUDGET FOR ENTIRE MODEL AT END OF TIME STEP   30, STRESS PERIOD  47
  ------------------------------------------------------------------------------

     CUMULATIVE VOLUMES      L**3       RATES FOR THIS TIME STEP      L**3/T
     ------------------                 ------------------------

           IN:                                      IN:
           ---                                      ---
             STORAGE     =   859111296.0000               STORAGE     =           4.5744
       CONSTANT HEAD     =           0.0000         CONSTANT HEAD     =           0.0000
     HEAD DEP BOUNDS     =    34628996.0000       HEAD DEP BOUNDS     =           0.2869
      STREAM LEAKAGE     =  1453312640.0000        STREAM LEAKAGE     =          11.4869
        UZF RECHARGE     =       73223.9531          UZF RECHARGE     =           0.0000
               GW ET     =           0.0000                 GW ET     =           0.0000
     SURFACE LEAKAGE     =           0.0000       SURFACE LEAKAGE     =           0.0000
           AG WELLS      =           0.0000             AG WELLS      =           0.0000

                TOTAL IN =  2347126272.0000                  TOTAL IN =          16.3481

          OUT:                                     OUT:
          ----                                     ----
             STORAGE     =   493266944.0000               STORAGE     =           5.6092
       CONSTANT HEAD     =           0.0000         CONSTANT HEAD     =           0.0000
     HEAD DEP BOUNDS     =    35182564.0000       HEAD DEP BOUNDS     =           0.2884
      STREAM LEAKAGE     =  1294350464.0000        STREAM LEAKAGE     =          10.4500
        UZF RECHARGE     =           0.0000          UZF RECHARGE     =           0.0000
               GW ET     =     3343843.5000                 GW ET     =           0.0000
     SURFACE LEAKAGE     =           0.0000       SURFACE LEAKAGE     =           0.0000
           AG WELLS      =   520990304.0000             AG WELLS      =       5.9605E-07

               TOTAL OUT =  2347134208.0000                 TOTAL OUT =          16.3477

                IN - OUT =       -7936.0000                  IN - OUT =       4.0436E-04

     PERCENT DISCREPANCY =          -0.00         PERCENT DISCREPANCY =           0.00






         TIME SUMMARY AT END OF TIME STEP   30 IN STRESS PERIOD   47
                    SECONDS     MINUTES      HOURS       DAYS        YEARS
                    -----------------------------------------------------------
   TIME STEP LENGTH  87667.      1461.1      24.352      1.0147     2.77799E-03
 STRESS PERIOD TIME 2.63000E+06  43833.      730.56      30.440     8.33397E-02
         TOTAL TIME 1.21065E+08 2.01775E+06  33629.      1401.2      3.8363    
1
1
                            STRESS PERIOD NO.   48, LENGTH =   2630000.    
                            -----------------------------------------------

                              NUMBER OF TIME STEPS =    30

                               MULTIPLIER FOR DELT =     1.000

                            INITIAL TIME STEP SIZE =   87666.66    

 REUSING NON-PARAMETER GHB CELLS FROM LAST STRESS PERIOD

      2 GHB CELLS

 REUSING STREAM SEGMENT DATA FROM LAST STRESS PERIOD



            AREAL INFILTRATION RATE
 READING ON UNIT   19 WITH FORMAT: (FREE)              

            1           2           3           4           5           6           7           8           9          10
 ........................................................................................................................
   1   1.0000E-10  2.0000E-10   0.000       0.000       0.000       0.000       0.000       0.000       0.000       0.000    
   2   2.0000E-10  1.0000E-10  2.0000E-10   0.000       0.000      8.0000E-10  8.0000E-10  5.0000E-10   0.000       0.000    
   3    0.000      5.0000E-10  1.0000E-10  1.0000E-10  8.0000E-10  8.0000E-10  5.0000E-10  5.0000E-10   0.000       0.000    
   4   8.0000E-10  5.0000E-10  1.0000E-10  1.0000E-10  1.0000E-10  1.0000E-10  1.0000E-10  1.0000E-10  2.0000E-10   0.000    
   5   8.0000E-10  5.0000E-10  1.0000E-10  1.0000E-10  1.0000E-10  1.0000E-10  1.0000E-10  1.0000E-10  1.0000E-10  1.0000E-10
   6   8.0000E-10  5.0000E-10  5.0000E-10  2.0000E-10  2.0000E-10  1.0000E-10  1.0000E-10  1.0000E-10  1.0000E-10  5.0000E-10
   7   8.0000E-10  5.0000E-10  5.0000E-10  2.0000E-10  2.0000E-10  1.0000E-10  1.0000E-10  2.0000E-10  2.0000E-10   0.000    
   8    0.000      5.0000E-10  5.0000E-10  2.0000E-10  2.0000E-10  1.0000E-10  1.0000E-10  2.0000E-10  5.0000E-10   0.000    
   9    0.000      5.0000E-10  5.0000E-10  2.0000E-10  2.0000E-10  1.0000E-10  1.0000E-10  2.0000E-10  5.0000E-10   0.000    
  10    0.000      5.0000E-10  5.0000E-10  2.0000E-10  2.0000E-10  1.0000E-10  1.0000E-10  2.0000E-10  5.0000E-10  8.0000E-10
  11    0.000      1.0000E-10  1.0000E-10  1.0000E-10  1.0000E-10  1.0000E-10  1.0000E-10  2.0000E-10  5.0000E-10   0.000    
  12   1.0000E-10  1.0000E-10  1.0000E-10  1.0000E-10  1.0000E-10  1.0000E-10  1.0000E-10  1.0000E-10  2.0000E-10   0.000    
  13   1.0000E-10  1.0000E-10  2.0000E-10  2.0000E-10  2.0000E-10  2.0000E-10  2.0000E-10  1.0000E-10  1.0000E-10   0.000    
  14    0.000      2.0000E-10  5.0000E-10  5.0000E-10  5.0000E-10  5.0000E-10  5.0000E-10  2.0000E-10  1.0000E-10   0.000    
  15    0.000       0.000      8.0000E-10  8.0000E-10  8.0000E-10  8.0000E-10   0.000       0.000       0.000       0.000    

                  ET RATE =  5.000000E-10

 USING ET EXTINCTION DEPTH FROM PREVIOUS STRESS PERIOD. CURRENT PERIOD IS:      48

 USING EXTINCTION WATER CONTENT FROM PREVIOUS STRESS PERIOD. CURRENT PERIOD IS:      48

 USING AIR ENTRY PRESSURE FROM PREVIOUS STRESS PERIOD. CURRENT PERIOD IS:      48

 USING ROOT PRESSURE HEAD FROM PREVIOUS STRESS PERIOD. CURRENT PERIOD IS:      48

 USING ROOT ACTIVITY FROM PREVIOUS STRESS PERIOD. CURRENT PERIOD IS:      48

 PROCESSING AG STRESS PERIOD DATA

 READING AG STRESS PERIOD DATA

 READING IRRIGATION SEGMENT

 READING IRRIGATION WELL

 READING SUPPLEMENTAL WELL

 NO IRRPOND OR REUSING IRRPOND DATA FROM LAST STRESS PERIOD

 END PROCESSING AG STRESS PERIOD DATA OPTIONS
 
 SOLVING FOR HEAD 
                                                   Max.-Head-Change                         Max.-Flux-Residual
  Residual-Control   Outer-Iter.   Inner-Iter.     Column Row Layer    Maximum-Head-Change  Column Row Layer    Maximum-Flux-Residual          L2-NORM 
          0                 1           2             4    7     1       0.1901490162E-01       4    7    1         0.1002406656E+01      0.2030449981E+01
          0                 2           2             4    7     1      -0.1849639061E-02       4    7    1        -0.1002411821E+00      0.2030446059E+00
          0                 3           1             4    7     1       0.1259534898E-03       4    7    1         0.7016880891E-02      0.1421309467E-01
          0                 4           1             4    7     1      -0.5011808956E-05       4    7    1        -0.2869908526E-03      0.5812985551E-03

    ------------------------------------------------
       NWT REQUIRED            4 OUTER ITERATIONS 
       AND A TOTAL OF          6 INNER ITERATIONS.
    ------------------------------------------------

 NO OUTPUT CONTROL FOR STRESS PERIOD   48   TIME STEP    1
 
 SOLVING FOR HEAD 
                                                   Max.-Head-Change                         Max.-Flux-Residual
  Residual-Control   Outer-Iter.   Inner-Iter.     Column Row Layer    Maximum-Head-Change  Column Row Layer    Maximum-Flux-Residual          L2-NORM 
          0                 1           2             4    7     1       0.1874218234E-01       4    7    1         0.9879917873E+00      0.2003738031E+01
          0                 2           2             4    7     1      -0.1823110716E-02       4    7    1        -0.9879968201E-01      0.2003734897E+00
          0                 3           1             4    7     1       0.1241470097E-03       4    7    1         0.6915975961E-02      0.1402609110E-01
          0                 4           1             4    7     1      -0.4939927543E-05       4    7    1        -0.2828638371E-03      0.5736714150E-03

    ------------------------------------------------
       NWT REQUIRED            4 OUTER ITERATIONS 
       AND A TOTAL OF          6 INNER ITERATIONS.
    ------------------------------------------------

 NO OUTPUT CONTROL FOR STRESS PERIOD   48   TIME STEP    2
 
 SOLVING FOR HEAD 
                                                   Max.-Head-Change                         Max.-Flux-Residual
  Residual-Control   Outer-Iter.   Inner-Iter.     Column Row Layer    Maximum-Head-Change  Column Row Layer    Maximum-Flux-Residual          L2-NORM 
          0                 1           2             4    7     1       0.1847413336E-01       4    7    1         0.9738221371E+00      0.1977604651E+01
          0                 2           2             4    7     1      -0.1797036667E-02       4    7    1        -0.9738270403E-01      0.1977602547E+00
          0                 3           1             4    7     1       0.1223714655E-03       4    7    1         0.6816787584E-02      0.1384319339E-01
          0                 4           1             4    7     1      -0.4869276958E-05       4    7    1        -0.2788070283E-03      0.5662584373E-03

    ------------------------------------------------
       NWT REQUIRED            4 OUTER ITERATIONS 
       AND A TOTAL OF          6 INNER ITERATIONS.
    ------------------------------------------------

 NO OUTPUT CONTROL FOR STRESS PERIOD   48   TIME STEP    3
 
 SOLVING FOR HEAD 
                                                   Max.-Head-Change                         Max.-Flux-Residual
  Residual-Control   Outer-Iter.   Inner-Iter.     Column Row Layer    Maximum-Head-Change  Column Row Layer    Maximum-Flux-Residual          L2-NORM 
          0                 1           2             4    7     1       0.1821069263E-01       4    7    1         0.9598946346E+00      0.1952033287E+01
          0                 2           2             4    7     1      -0.1771410880E-02       4    7    1        -0.9598994113E-01      0.1952031851E+00
          0                 3           1             4    7     1       0.1206264460E-03       4    7    1         0.6719294252E-02      0.1366415990E-01
          0                 4           1             4    7     1      -0.4799840739E-05       4    7    1        -0.2748195366E-03      0.5588694616E-03

    ------------------------------------------------
       NWT REQUIRED            4 OUTER ITERATIONS 
       AND A TOTAL OF          6 INNER ITERATIONS.
    ------------------------------------------------

 NO OUTPUT CONTROL FOR STRESS PERIOD   48   TIME STEP    4
 
 SOLVING FOR HEAD 
                                                   Max.-Head-Change                         Max.-Flux-Residual
  Residual-Control   Outer-Iter.   Inner-Iter.     Column Row Layer    Maximum-Head-Change  Column Row Layer    Maximum-Flux-Residual          L2-NORM 
          0                 1           2             4    7     1       0.1795192987E-01       4    7    1         0.9462134238E+00      0.1927008860E+01
          0                 2           2             4    7     1      -0.1746240137E-02       4    7    1        -0.9462180768E-01      0.1927008216E+00
          0                 3           1             4    7     1       0.1189124139E-03       4    7    1         0.6623525003E-02      0.1348901771E-01
          0                 4           1             4    7     1      -0.4731637882E-05       4    7    1        -0.2709025680E-03      0.5517038424E-03

    ------------------------------------------------
       NWT REQUIRED            4 OUTER ITERATIONS 
       AND A TOTAL OF          6 INNER ITERATIONS.
    ------------------------------------------------

 NO OUTPUT CONTROL FOR STRESS PERIOD   48   TIME STEP    5
 
 SOLVING FOR HEAD 
                                                   Max.-Head-Change                         Max.-Flux-Residual
  Residual-Control   Outer-Iter.   Inner-Iter.     Column Row Layer    Maximum-Head-Change  Column Row Layer    Maximum-Flux-Residual          L2-NORM 
          0                 1           2             4    7     1       0.1769750204E-01       4    7    1         0.9327600376E+00      0.1902503501E+01
          0                 2           2             4    7     1      -0.1721491068E-02       4    7    1        -0.9327645698E-01      0.1902503515E+00
          0                 3           1             4    7     1       0.1172270959E-03       4    7    1         0.6529350531E-02      0.1331749384E-01
          0                 4           1             4    7     1      -0.4664577551E-05       4    7    1        -0.2670508306E-03      0.5446783675E-03

    ------------------------------------------------
       NWT REQUIRED            4 OUTER ITERATIONS 
       AND A TOTAL OF          6 INNER ITERATIONS.
    ------------------------------------------------

 NO OUTPUT CONTROL FOR STRESS PERIOD   48   TIME STEP    6
 
 SOLVING FOR HEAD 
                                                   Max.-Head-Change                         Max.-Flux-Residual
  Residual-Control   Outer-Iter.   Inner-Iter.     Column Row Layer    Maximum-Head-Change  Column Row Layer    Maximum-Flux-Residual          L2-NORM 
          0                 1           2             4    7     1       0.1744762397E-01       4    7    1         0.9195461330E+00      0.1878520388E+01
          0                 2           2             4    7     1      -0.1697184570E-02       4    7    1        -0.9195505470E-01      0.1878520931E+00
          0                 3           1             4    7     1       0.1155719153E-03       4    7    1         0.6436852431E-02      0.1314961631E-01
          0                 4           1             4    7     1      -0.4598716735E-05       4    7    1        -0.2632676596E-03      0.5378247185E-03

    ------------------------------------------------
       NWT REQUIRED            4 OUTER ITERATIONS 
       AND A TOTAL OF          6 INNER ITERATIONS.
    ------------------------------------------------

 NO OUTPUT CONTROL FOR STRESS PERIOD   48   TIME STEP    7
 
 SOLVING FOR HEAD 
                                                   Max.-Head-Change                         Max.-Flux-Residual
  Residual-Control   Outer-Iter.   Inner-Iter.     Column Row Layer    Maximum-Head-Change  Column Row Layer    Maximum-Flux-Residual          L2-NORM 
          0                 1           2             4    7     1       0.1720194432E-01       4    7    1         0.9065534038E+00      0.1855016449E+01
          0                 2           2             4    7     1      -0.1673286469E-02       4    7    1        -0.9065577024E-01      0.1855017499E+00
          0                 3           1             4    7     1       0.1139445449E-03       4    7    1         0.6345902602E-02      0.1298510883E-01
          0                 4           1             4    7     1      -0.4533961950E-05       4    7    1        -0.2595477999E-03      0.5310922564E-03

    ------------------------------------------------
       NWT REQUIRED            4 OUTER ITERATIONS 
       AND A TOTAL OF          6 INNER ITERATIONS.
    ------------------------------------------------

 NO OUTPUT CONTROL FOR STRESS PERIOD   48   TIME STEP    8
 
 SOLVING FOR HEAD 
                                                   Max.-Head-Change                         Max.-Flux-Residual
  Residual-Control   Outer-Iter.   Inner-Iter.     Column Row Layer    Maximum-Head-Change  Column Row Layer    Maximum-Flux-Residual          L2-NORM 
          0                 1           2             4    7     1       0.1696081080E-01       4    7    1         0.8938004416E+00      0.1832011960E+01
          0                 2           2             4    7     1      -0.1649830586E-02       4    7    1        -0.8938046279E-01      0.1832013318E+00
          0                 3           1             4    7     1       0.1123472876E-03       4    7    1         0.6256631138E-02      0.1282407027E-01
          0                 4           1             4    7     1      -0.4470405643E-05       4    7    1        -0.2558965857E-03      0.5245017045E-03

    ------------------------------------------------
       NWT REQUIRED            4 OUTER ITERATIONS 
       AND A TOTAL OF          6 INNER ITERATIONS.
    ------------------------------------------------

 NO OUTPUT CONTROL FOR STRESS PERIOD   48   TIME STEP    9
 
 SOLVING FOR HEAD 
                                                   Max.-Head-Change                         Max.-Flux-Residual
  Residual-Control   Outer-Iter.   Inner-Iter.     Column Row Layer    Maximum-Head-Change  Column Row Layer    Maximum-Flux-Residual          L2-NORM 
          0                 1           2             4    7     1       0.1672373947E-01       4    7    1         0.8812611041E+00      0.1809476626E+01
          0                 2           2             4    7     1      -0.1626769848E-02       4    7    1        -0.8812651808E-01      0.1809478569E+00
          0                 3           1             4    7     1       0.1107769386E-03       4    7    1         0.6168855075E-02      0.1266633466E-01
          0                 4           1             4    7     1      -0.4407920138E-05       4    7    1        -0.2523065418E-03      0.5180513776E-03

    ------------------------------------------------
       NWT REQUIRED            4 OUTER ITERATIONS 
       AND A TOTAL OF          6 INNER ITERATIONS.
    ------------------------------------------------

 NO OUTPUT CONTROL FOR STRESS PERIOD   48   TIME STEP   10
 
 SOLVING FOR HEAD 
                                                   Max.-Head-Change                         Max.-Flux-Residual
  Residual-Control   Outer-Iter.   Inner-Iter.     Column Row Layer    Maximum-Head-Change  Column Row Layer    Maximum-Flux-Residual          L2-NORM 
          0                 1           2             4    7     1       0.1649093148E-01       4    7    1         0.8689471096E+00      0.1787385639E+01
          0                 2           2             4    7     1      -0.1604123821E-02       4    7    1        -0.8689510792E-01      0.1787387565E+00
          0                 3           1             4    7     1       0.1092348296E-03       4    7    1         0.6082656429E-02      0.1251170408E-01
          0                 4           1             4    7     1      -0.4346558048E-05       4    7    1        -0.2487810079E-03      0.5117320855E-03

    ------------------------------------------------
       NWT REQUIRED            4 OUTER ITERATIONS 
       AND A TOTAL OF          6 INNER ITERATIONS.
    ------------------------------------------------

 NO OUTPUT CONTROL FOR STRESS PERIOD   48   TIME STEP   11
 
 SOLVING FOR HEAD 
                                                   Max.-Head-Change                         Max.-Flux-Residual
  Residual-Control   Outer-Iter.   Inner-Iter.     Column Row Layer    Maximum-Head-Change  Column Row Layer    Maximum-Flux-Residual          L2-NORM 
          0                 1           2             4    7     1       0.1626231794E-01       4    7    1         0.8568541634E+00      0.1765755232E+01
          0                 2           2             4    7     1      -0.1581885803E-02       4    7    1        -0.8568580288E-01      0.1765757311E+00
          0                 3           1             4    7     1       0.1077205041E-03       4    7    1         0.5998005124E-02      0.1236029211E-01
          0                 4           1             4    7     1      -0.4286301068E-05       4    7    1        -0.2453187503E-03      0.5055383356E-03

    ------------------------------------------------
       NWT REQUIRED            4 OUTER ITERATIONS 
       AND A TOTAL OF          6 INNER ITERATIONS.
    ------------------------------------------------

 NO OUTPUT CONTROL FOR STRESS PERIOD   48   TIME STEP   12
 
 SOLVING FOR HEAD 
                                                   Max.-Head-Change                         Max.-Flux-Residual
  Residual-Control   Outer-Iter.   Inner-Iter.     Column Row Layer    Maximum-Head-Change  Column Row Layer    Maximum-Flux-Residual          L2-NORM 
          0                 1           2             4    7     1       0.1603768283E-01       4    7    1         0.8449713311E+00      0.1744540594E+01
          0                 2           2             4    7     1      -0.1560034782E-02       4    7    1        -0.8449750950E-01      0.1744542849E+00
          0                 3           1             4    7     1       0.1062325327E-03       4    7    1         0.5914824674E-02      0.1221179710E-01
          0                 4           1             4    7     1      -0.4227093821E-05       4    7    1        -0.2419166840E-03      0.4994691461E-03

    ------------------------------------------------
       NWT REQUIRED            4 OUTER ITERATIONS 
       AND A TOTAL OF          6 INNER ITERATIONS.
    ------------------------------------------------

 NO OUTPUT CONTROL FOR STRESS PERIOD   48   TIME STEP   13
 
 SOLVING FOR HEAD 
                                                   Max.-Head-Change                         Max.-Flux-Residual
  Residual-Control   Outer-Iter.   Inner-Iter.     Column Row Layer    Maximum-Head-Change  Column Row Layer    Maximum-Flux-Residual          L2-NORM 
          0                 1           2             4    7     1       0.1581709654E-01       4    7    1         0.8333021373E+00      0.1723756969E+01
          0                 2           2             4    7     1      -0.1538577605E-02       4    7    1        -0.8333058022E-01      0.1723759364E+00
          0                 3           1             4    7     1       0.1047713793E-03       4    7    1         0.5833139659E-02      0.1206631619E-01
          0                 4           1             4    7     1      -0.4168952887E-05       4    7    1        -0.2385757434E-03      0.4935116836E-03

    ------------------------------------------------
       NWT REQUIRED            4 OUTER ITERATIONS 
       AND A TOTAL OF          6 INNER ITERATIONS.
    ------------------------------------------------

 NO OUTPUT CONTROL FOR STRESS PERIOD   48   TIME STEP   14
 
 SOLVING FOR HEAD 
                                                   Max.-Head-Change                         Max.-Flux-Residual
  Residual-Control   Outer-Iter.   Inner-Iter.     Column Row Layer    Maximum-Head-Change  Column Row Layer    Maximum-Flux-Residual          L2-NORM 
          0                 1           2             4    7     1       0.1560047770E-01       4    7    1         0.8218428698E+00      0.1703377308E+01
          0                 2           2             4    7     1      -0.1517506356E-02       4    7    1        -0.8218464383E-01      0.1703379829E+00
          0                 3           1             4    7     1       0.1033365070E-03       4    7    1         0.5752924161E-02      0.1192366102E-01
          0                 4           1             4    7     1      -0.4111858231E-05       4    7    1        -0.2352949477E-03      0.4876766570E-03

    ------------------------------------------------
       NWT REQUIRED            4 OUTER ITERATIONS 
       AND A TOTAL OF          6 INNER ITERATIONS.
    ------------------------------------------------

 NO OUTPUT CONTROL FOR STRESS PERIOD   48   TIME STEP   15
 
 SOLVING FOR HEAD 
                                                   Max.-Head-Change                         Max.-Flux-Residual
  Residual-Control   Outer-Iter.   Inner-Iter.     Column Row Layer    Maximum-Head-Change  Column Row Layer    Maximum-Flux-Residual          L2-NORM 
          0                 1           2             4    7     1       0.1538762000E-01       4    7    1         0.8105819455E+00      0.1683392159E+01
          0                 2           2             4    7     1      -0.1496800967E-02       4    7    1        -0.8105854202E-01      0.1683394616E+00
          0                 3           1             4    7     1       0.1019265484E-03       4    7    1         0.5674097112E-02      0.1178375705E-01
          0                 4           1             4    7     1      -0.4055754710E-05       4    7    1        -0.2320709068E-03      0.4819570313E-03

    ------------------------------------------------
       NWT REQUIRED            4 OUTER ITERATIONS 
       AND A TOTAL OF          6 INNER ITERATIONS.
    ------------------------------------------------

 NO OUTPUT CONTROL FOR STRESS PERIOD   48   TIME STEP   16
 
 SOLVING FOR HEAD 
                                                   Max.-Head-Change                         Max.-Flux-Residual
  Residual-Control   Outer-Iter.   Inner-Iter.     Column Row Layer    Maximum-Head-Change  Column Row Layer    Maximum-Flux-Residual          L2-NORM 
          0                 1           2             4    7     1       0.1517858965E-01       4    7    1         0.7995233946E+00      0.1663798261E+01
          0                 2           2             4    7     1      -0.1476467879E-02       4    7    1        -0.7995267779E-01      0.1663800762E+00
          0                 3           1             4    7     1       0.1005419419E-03       4    7    1         0.5596686661E-02      0.1164660332E-01
          0                 4           1             4    7     1      -0.4000659936E-05       4    7    1        -0.2289048284E-03      0.4763460408E-03

    ------------------------------------------------
       NWT REQUIRED            4 OUTER ITERATIONS 
       AND A TOTAL OF          6 INNER ITERATIONS.
    ------------------------------------------------

 NO OUTPUT CONTROL FOR STRESS PERIOD   48   TIME STEP   17
 
 SOLVING FOR HEAD 
                                                   Max.-Head-Change                         Max.-Flux-Residual
  Residual-Control   Outer-Iter.   Inner-Iter.     Column Row Layer    Maximum-Head-Change  Column Row Layer    Maximum-Flux-Residual          L2-NORM 
          0                 1           2             4    7     1       0.1497331633E-01       4    7    1         0.7886632867E+00      0.1644583947E+01
          0                 2           2             4    7     1      -0.1456500251E-02       4    7    1        -0.7886665811E-01      0.1644586494E+00
          0                 3           1             4    7     1       0.9918222174E-04       4    7    1         0.5520665347E-02      0.1151210897E-01

    ------------------------------------------------
       NWT REQUIRED            3 OUTER ITERATIONS 
       AND A TOTAL OF          5 INNER ITERATIONS.
    ------------------------------------------------

 NO OUTPUT CONTROL FOR STRESS PERIOD   48   TIME STEP   18
 
 SOLVING FOR HEAD 
                                                   Max.-Head-Change                         Max.-Flux-Residual
  Residual-Control   Outer-Iter.   Inner-Iter.     Column Row Layer    Maximum-Head-Change  Column Row Layer    Maximum-Flux-Residual          L2-NORM 
          0                 1           2             4    7     1       0.1477165407E-01       4    7    1         0.7779944076E+00      0.1625727221E+01
          0                 2           2             4    7     1      -0.1436883885E-02       4    7    1        -0.7779976156E-01      0.1625729742E+00
          0                 3           1             4    7     1       0.9784642099E-04       4    7    1         0.5445982629E-02      0.1138010958E-01

    ------------------------------------------------
       NWT REQUIRED            3 OUTER ITERATIONS 
       AND A TOTAL OF          5 INNER ITERATIONS.
    ------------------------------------------------

 NO OUTPUT CONTROL FOR STRESS PERIOD   48   TIME STEP   19
 
 SOLVING FOR HEAD 
                                                   Max.-Head-Change                         Max.-Flux-Residual
  Residual-Control   Outer-Iter.   Inner-Iter.     Column Row Layer    Maximum-Head-Change  Column Row Layer    Maximum-Flux-Residual          L2-NORM 
          0                 1           2             4    7     1       0.1457360272E-01       4    7    1         0.7675163876E+00      0.1607228724E+01
          0                 2           2             4    7     1      -0.1417618764E-02       4    7    1        -0.7675195114E-01      0.1607231244E+00
          0                 3           1             4    7     1       0.9653453927E-04       4    7    1         0.5372635957E-02      0.1125062145E-01

    ------------------------------------------------
       NWT REQUIRED            3 OUTER ITERATIONS 
       AND A TOTAL OF          5 INNER ITERATIONS.
    ------------------------------------------------

 NO OUTPUT CONTROL FOR STRESS PERIOD   48   TIME STEP   20
 
 SOLVING FOR HEAD 
                                                   Max.-Head-Change                         Max.-Flux-Residual
  Residual-Control   Outer-Iter.   Inner-Iter.     Column Row Layer    Maximum-Head-Change  Column Row Layer    Maximum-Flux-Residual          L2-NORM 
          0                 1           2             4    7     1       0.1437922557E-01       4    7    1         0.7572329517E+00      0.1589087379E+01
          0                 2           2             4    7     1      -0.1398711047E-02       4    7    1        -0.7572359937E-01      0.1589089878E+00
          0                 3           1             4    7     1       0.9524699501E-04       4    7    1         0.5300651386E-02      0.1112363228E-01

    ------------------------------------------------
       NWT REQUIRED            3 OUTER ITERATIONS 
       AND A TOTAL OF          5 INNER ITERATIONS.
    ------------------------------------------------

 NO OUTPUT CONTROL FOR STRESS PERIOD   48   TIME STEP   21
 
 SOLVING FOR HEAD 
                                                   Max.-Head-Change                         Max.-Flux-Residual
  Residual-Control   Outer-Iter.   Inner-Iter.     Column Row Layer    Maximum-Head-Change  Column Row Layer    Maximum-Flux-Residual          L2-NORM 
          0                 1           2             4    7     1       0.1418817832E-01       4    7    1         0.7471252876E+00      0.1571276616E+01
          0                 2           2             4    7     1      -0.1380127241E-02       4    7    1        -0.7471282500E-01      0.1571279080E+00
          0                 3           1             4    7     1       0.9398150776E-04       4    7    1         0.5229897212E-02      0.1099896535E-01

    ------------------------------------------------
       NWT REQUIRED            3 OUTER ITERATIONS 
       AND A TOTAL OF          5 INNER ITERATIONS.
    ------------------------------------------------

 NO OUTPUT CONTROL FOR STRESS PERIOD   48   TIME STEP   22
 
 SOLVING FOR HEAD 
                                                   Max.-Head-Change                         Max.-Flux-Residual
  Residual-Control   Outer-Iter.   Inner-Iter.     Column Row Layer    Maximum-Head-Change  Column Row Layer    Maximum-Flux-Residual          L2-NORM 
          0                 1           2             4    7     1       0.1400053023E-01       4    7    1         0.7371976380E+00      0.1553800434E+01
          0                 2           2             4    7     1      -0.1361874084E-02       4    7    1        -0.7372005229E-01      0.1553802637E+00
          0                 3           1             4    7     1       0.9273853642E-04       4    7    1         0.5160403164E-02      0.1087662060E-01

    ------------------------------------------------
       NWT REQUIRED            3 OUTER ITERATIONS 
       AND A TOTAL OF          5 INNER ITERATIONS.
    ------------------------------------------------

 NO OUTPUT CONTROL FOR STRESS PERIOD   48   TIME STEP   23
 
 SOLVING FOR HEAD 
                                                   Max.-Head-Change                         Max.-Flux-Residual
  Residual-Control   Outer-Iter.   Inner-Iter.     Column Row Layer    Maximum-Head-Change  Column Row Layer    Maximum-Flux-Residual          L2-NORM 
          0                 1           2             4    7     1       0.1381634537E-01       4    7    1         0.7274535950E+00      0.1536645295E+01
          0                 2           2             4    7     1      -0.1343957809E-02       4    7    1        -0.7274564045E-01      0.1536647603E+00
          0                 3           1             4    7     1       0.9151850583E-04       4    7    1         0.5092194373E-02      0.1075653968E-01

    ------------------------------------------------
       NWT REQUIRED            3 OUTER ITERATIONS 
       AND A TOTAL OF          5 INNER ITERATIONS.
    ------------------------------------------------

 NO OUTPUT CONTROL FOR STRESS PERIOD   48   TIME STEP   24
 
 SOLVING FOR HEAD 
                                                   Max.-Head-Change                         Max.-Flux-Residual
  Residual-Control   Outer-Iter.   Inner-Iter.     Column Row Layer    Maximum-Head-Change  Column Row Layer    Maximum-Flux-Residual          L2-NORM 
          0                 1           2             4    7     1       0.1363541636E-01       4    7    1         0.7178817496E+00      0.1519812837E+01
          0                 2           2             4    7     1      -0.1326358241E-02       4    7    1        -0.7178844860E-01      0.1519815041E+00
          0                 3           1             4    7     1       0.9032004137E-04       4    7    1         0.5025190982E-02      0.1063870653E-01

    ------------------------------------------------
       NWT REQUIRED            3 OUTER ITERATIONS 
       AND A TOTAL OF          5 INNER ITERATIONS.
    ------------------------------------------------

 NO OUTPUT CONTROL FOR STRESS PERIOD   48   TIME STEP   25
 
 SOLVING FOR HEAD 
                                                   Max.-Head-Change                         Max.-Flux-Residual
  Residual-Control   Outer-Iter.   Inner-Iter.     Column Row Layer    Maximum-Head-Change  Column Row Layer    Maximum-Flux-Residual          L2-NORM 
          0                 1           2             4    7     1       0.1345767775E-01       4    7    1         0.7084787145E+00      0.1503278586E+01
          0                 2           2             4    7     1      -0.1309069016E-02       4    7    1        -0.7084813796E-01      0.1503280651E+00
          0                 3           1             4    7     1       0.8914271042E-04       4    7    1         0.4959369278E-02      0.1052295732E-01

    ------------------------------------------------
       NWT REQUIRED            3 OUTER ITERATIONS 
       AND A TOTAL OF          5 INNER ITERATIONS.
    ------------------------------------------------

 NO OUTPUT CONTROL FOR STRESS PERIOD   48   TIME STEP   26
 
 SOLVING FOR HEAD 
                                                   Max.-Head-Change                         Max.-Flux-Residual
  Residual-Control   Outer-Iter.   Inner-Iter.     Column Row Layer    Maximum-Head-Change  Column Row Layer    Maximum-Flux-Residual          L2-NORM 
          0                 1           2             4    7     1       0.1328306339E-01       4    7    1         0.6992410964E+00      0.1487051118E+01
          0                 2           2             4    7     1      -0.1292083697E-02       4    7    1        -0.6992436921E-01      0.1487053096E+00
          0                 3           1             4    7     1       0.8798607405E-04       4    7    1         0.4894705510E-02      0.1040937525E-01

    ------------------------------------------------
       NWT REQUIRED            3 OUTER ITERATIONS 
       AND A TOTAL OF          5 INNER ITERATIONS.
    ------------------------------------------------

 NO OUTPUT CONTROL FOR STRESS PERIOD   48   TIME STEP   27
 
 SOLVING FOR HEAD 
                                                   Max.-Head-Change                         Max.-Flux-Residual
  Residual-Control   Outer-Iter.   Inner-Iter.     Column Row Layer    Maximum-Head-Change  Column Row Layer    Maximum-Flux-Residual          L2-NORM 
          0                 1           2             4    7     1       0.1311164286E-01       4    7    1         0.6901728317E+00      0.1471116441E+01
          0                 2           2             4    7     1      -0.1275409055E-02       4    7    1        -0.6901753602E-01      0.1471118417E+00
          0                 3           1             4    7     1       0.8685059356E-04       4    7    1         0.4831227209E-02      0.1029783114E-01

    ------------------------------------------------
       NWT REQUIRED            3 OUTER ITERATIONS 
       AND A TOTAL OF          5 INNER ITERATIONS.
    ------------------------------------------------

 NO OUTPUT CONTROL FOR STRESS PERIOD   48   TIME STEP   28
 
 SOLVING FOR HEAD 
                                                   Max.-Head-Change                         Max.-Flux-Residual
  Residual-Control   Outer-Iter.   Inner-Iter.     Column Row Layer    Maximum-Head-Change  Column Row Layer    Maximum-Flux-Residual          L2-NORM 
          0                 1           2             4    7     1       0.1294334691E-01       4    7    1         0.6812701627E+00      0.1455466436E+01
          0                 2           2             4    7     1      -0.1259038352E-02       4    7    1        -0.6812726258E-01      0.1455468262E+00
          0                 3           1             4    7     1       0.8573581003E-04       4    7    1         0.4768908108E-02      0.1018828081E-01

    ------------------------------------------------
       NWT REQUIRED            3 OUTER ITERATIONS 
       AND A TOTAL OF          5 INNER ITERATIONS.
    ------------------------------------------------

 NO OUTPUT CONTROL FOR STRESS PERIOD   48   TIME STEP   29
 
 SOLVING FOR HEAD 
                                                   Max.-Head-Change                         Max.-Flux-Residual
  Residual-Control   Outer-Iter.   Inner-Iter.     Column Row Layer    Maximum-Head-Change  Column Row Layer    Maximum-Flux-Residual          L2-NORM 
          0                 1           2             4    7     1       0.1277784132E-01       4    7    1         0.6725147647E+00      0.1440098554E+01
          0                 2           2             4    7     1      -0.1242939077E-02       4    7    1        -0.6725171640E-01      0.1440100354E+00
          0                 3           1             4    7     1       0.8463951068E-04       4    7    1         0.4707619923E-02      0.1008071552E-01

    ------------------------------------------------
       NWT REQUIRED            3 OUTER ITERATIONS 
       AND A TOTAL OF          5 INNER ITERATIONS.
    ------------------------------------------------

 NO OUTPUT CONTROL FOR STRESS PERIOD   48   TIME STEP   30



 STREAM LISTING     PERIOD     48   STEP       30

 LAYER ROW COL. STREAM  RCH.  FLOW INTO     FLOW TO   FLOW OUT OF   OVRLND.     DIRECT     STREAM       STREAM     STREAM     STREAM   STREAMBED  STREAMBED
                SEG.NO.  NO.  STRM. RCH.    AQUIFER    STRM. RCH.    RUNOFF     PRECIP       ET          HEAD       DEPTH      WIDTH   CONDCTNC.   GRADIENT

   1    1    1     1     1    1.5750E+01  1.9239E-01   1.5557E+01  0.000E+00  0.000E+00  0.000E+00  1.09407E+03  1.025E+00  1.062E+01  4.780E-02  1.342E+00
   1    2    2     1     2    1.5557E+01  2.9659E-01   1.5261E+01  0.000E+00  0.000E+00  0.000E+00  1.08908E+03  1.020E+00  1.054E+01  7.378E-02  1.340E+00
   1    3    3     1     3    1.5261E+01  2.5163E-01   1.5009E+01  0.000E+00  0.000E+00  0.000E+00  1.08343E+03  1.015E+00  1.045E+01  6.268E-02  1.338E+00
   1    3    4     1     4    1.5009E+01  2.3063E-01   1.4778E+01  0.000E+00  0.000E+00  0.000E+00  1.07842E+03  1.010E+00  1.036E+01  5.751E-02  1.337E+00
   1    4    5     2     1    1.2778E+01  2.9653E-01   1.2482E+01  0.000E+00  0.000E+00  0.000E+00  1.07274E+03  8.017E-01  1.200E+01  7.800E-02  1.267E+00
   1    5    6     2     2    1.2482E+01  2.2750E-01   1.2254E+01  0.000E+00  0.000E+00  0.000E+00  1.06730E+03  7.916E-01  1.200E+01  6.000E-02  1.264E+00
   1    6    6     2     3    1.2254E+01  2.2697E-01   1.2027E+01  0.000E+00  0.000E+00  0.000E+00  1.06258E+03  7.829E-01  1.200E+01  6.000E-02  1.261E+00
   1    7    6     2     4    1.2027E+01  2.2644E-01   1.1801E+01  0.000E+00  0.000E+00  0.000E+00  1.05785E+03  7.741E-01  1.200E+01  6.000E-02  1.258E+00
   1    8    6     2     5    1.1801E+01  2.2591E-01   1.1575E+01  0.000E+00  0.000E+00  0.000E+00  1.05312E+03  7.652E-01  1.200E+01  6.000E-02  1.255E+00
   1    3    5     3     1    2.0000E+00  2.8252E-01   1.7175E+00  0.000E+00  0.000E+00  0.000E+00  1.07555E+03  1.909E+00  9.636E+00  7.227E-02  1.955E+00
   1    3    6     3     2    1.7175E+00  2.4905E-01   1.4684E+00  0.000E+00  0.000E+00  0.000E+00  1.07264E+03  1.727E+00  8.909E+00  6.682E-02  1.864E+00
   1    3    7     3     3    1.4684E+00  1.9718E-01   1.2712E+00  0.000E+00  0.000E+00  0.000E+00  1.06987E+03  1.555E+00  8.218E+00  5.547E-02  1.777E+00
   1    4    8     3     4    1.2712E+00  2.2567E-01   1.0456E+00  0.000E+00  0.000E+00  0.000E+00  1.06682E+03  1.364E+00  7.455E+00  6.709E-02  1.682E+00
   1    5    8     3     5    1.0456E+00  1.5790E-01   8.8768E-01  0.000E+00  0.000E+00  0.000E+00  1.06362E+03  1.164E+00  6.655E+00  4.991E-02  1.582E+00
   1    6    8     3     6    8.8768E-01  5.5980E-02   8.3170E-01  0.000E+00  0.000E+00  0.000E+00  1.06158E+03  1.036E+00  6.145E+00  1.844E-02  1.518E+00
   1    5   10     4     1    1.0000E+01  9.0919E-02   9.9091E+00  0.000E+00  0.000E+00  0.000E+00  1.07836E+03  6.368E-01  1.000E+01  2.500E-02  1.212E+00
   1    5    9     4     2    9.9091E+00  1.8158E-01   9.7275E+00  0.000E+00  0.000E+00  0.000E+00  1.07154E+03  6.315E-01  1.000E+01  5.000E-02  1.211E+00
   1    6    8     4     3    9.7275E+00  1.2689E-01   9.6006E+00  0.000E+00  0.000E+00  0.000E+00  1.06381E+03  6.256E-01  1.000E+01  3.500E-02  1.209E+00
   1    6    8     5     1    1.0432E+01  2.2686E-01   1.0205E+01  0.000E+00  0.000E+00  0.000E+00  1.05868E+03  6.790E-01  1.542E+01  6.166E-02  1.226E+00
   1    7    7     5     2    1.0205E+01  2.7894E-01   9.9265E+00  0.000E+00  0.000E+00  0.000E+00  1.05417E+03  6.732E-01  1.519E+01  7.594E-02  1.224E+00
   1    8    7     5     3    9.9265E+00  1.9221E-01   9.7343E+00  0.000E+00  0.000E+00  0.000E+00  1.04992E+03  6.676E-01  1.497E+01  5.241E-02  1.223E+00
   1    8    6     5     4    9.7343E+00  1.3577E-01   9.5985E+00  0.000E+00  0.000E+00  0.000E+00  1.04691E+03  6.637E-01  1.482E+01  3.706E-02  1.221E+00
   1    9    6     6     1    2.1173E+01  2.4608E-01   2.0927E+01  0.000E+00  0.000E+00  0.000E+00  1.04383E+03  1.101E+00  1.200E+01  6.000E-02  1.367E+00
   1   10    7     6     2    2.0927E+01  2.4562E-01   2.0682E+01  0.000E+00  0.000E+00  0.000E+00  1.03928E+03  1.094E+00  1.200E+01  6.000E-02  1.365E+00
   1   11    7     6     3    2.0682E+01  2.4515E-01   2.0437E+01  0.000E+00  0.000E+00  0.000E+00  1.03472E+03  1.086E+00  1.200E+01  6.000E-02  1.362E+00
   1   12    7     6     4    2.0437E+01  2.4468E-01   2.0192E+01  0.000E+00  0.000E+00  0.000E+00  1.03017E+03  1.078E+00  1.200E+01  6.000E-02  1.359E+00
   1   13    7     6     5    2.0192E+01  9.6138E-04   2.0191E+01  0.000E+00  0.000E+00  0.000E+00  1.02698E+03  1.074E+00  1.200E+01  2.400E-02  1.335E-02
   1   14    9     7     1    1.5000E+02  1.3525E+00   1.4865E+02  0.000E+00  0.000E+00  0.000E+00  1.03987E+03  2.288E+00  5.529E+01  5.593E-01  8.061E-01
   1   13    8     7     2    1.4865E+02  1.8807E+00   1.4677E+02  0.000E+00  0.000E+00  0.000E+00  1.03478E+03  2.279E+00  5.526E+01  6.148E-01  1.020E+00
   1   13    7     7     3    1.4677E+02  1.5335E+00   1.4523E+02  0.000E+00  0.000E+00  0.000E+00  1.02969E+03  2.270E+00  5.521E+01  5.584E-01  9.154E-01
   1   13    6     8     1    1.6542E+02  9.5647E-01   1.6447E+02  0.000E+00  0.000E+00  0.000E+00  1.02479E+03  2.919E+00  4.233E+01  4.313E-01  7.392E-01
   1   13    5     8     2    1.6447E+02  2.0740E-01   1.6426E+02  0.000E+00  0.000E+00  0.000E+00  1.01854E+03  2.915E+00  4.227E+01  4.307E-01  1.605E-01
   1   13    4     8     3    1.6426E+02 -2.3316E+00   1.6659E+02  0.000E+00  0.000E+00  0.000E+00  1.01230E+03  2.922E+00  4.237E+01  4.318E+00 -1.800E-01
   1   13    3     8     4    1.6659E+02 -3.5868E+00   1.7018E+02  0.000E+00  0.000E+00  0.000E+00  1.00607E+03  2.942E+00  4.265E+01  4.347E+00 -2.751E-01
   1   13    2     8     5    1.7018E+02 -2.5537E+00   1.7273E+02  0.000E+00  0.000E+00  0.000E+00  9.99837E+02  2.962E+00  4.294E+01  4.376E+00 -1.945E-01
   1   13    1     8     6    1.7273E+02 -1.9682E+00   1.7470E+02  0.000E+00  0.000E+00  0.000E+00  9.94851E+02  2.976E+00  4.316E+01  2.639E+00 -2.486E-01
   1    8    6     9     1    0.0000E+00  0.0000E+00   0.0000E+00  0.000E+00  0.000E+00  0.000E+00  1.07875E+03  0.000E+00  4.000E+00  0.000E+00  1.000E+00
   1    8    5     9     2    0.0000E+00  0.0000E+00   0.0000E+00  0.000E+00  0.000E+00  0.000E+00  1.07825E+03  0.000E+00  4.000E+00  0.000E+00  1.000E+00





UNSATURATED ZONE PACKAGE VOLUMETRIC BUDGET FOR  TIME STEP    30 STRESS PERIOD   48
  ------------------------------------------------------------------------------



     CUMULATIVE VOLUMES      L**3       RATES FOR THIS TIME STEP      L**3/T
     ------------------                 ------------------------

           IN:                                      IN:
           ---                                      ---
        INFILTRATION =  1852039267.8349          INFILTRATION =           0.8475

          OUT:                                     OUT:
          ----                                     ----
              UZF ET =  1705881185.5232                UZF ET =           0.7500
        UZF RECHARGE =       73224.0000          UZF RECHARGE =       0.0000E+00

            IN - OUT =   146084858.3117              IN - OUT =       9.7500E-02

          STORAGE:                                 STORAGE:
          --------                                 --------
      STORAGE CHANGE =   146086210.8966        STORAGE CHANGE =       9.7500E-02

 PERCENT DISCREPANCY IS DIFFERENCE BETWEEN IN-OUT MINUS CHANGE IN STORAGE
 DIVIDED BY THE AVERAGE OF IN AND OUT TIMES 100

 PERCENT DISCREPANCY =          -0.00     PERCENT DISCREPANCY =           0.00






1
  VOLUMETRIC BUDGET FOR AGRICULTURAL FIELDS AT  END OF TIME STEP   30, STRESS PERIOD  48
  ------------------------------------------------------------------------------

     CUMULATIVE VOLUMES      L**3       RATES FOR THIS TIME STEP      L**3/T
     ------------------                 ------------------------

           IN:                                      IN:
           ---                                      ---
               AG WELLS  =   520990304.0000                 AG WELLS  =           0.0000
      DIVERSION SEGMENTS =  1226277888.0000        DIVERSION SEGMENTS =           0.0000
       IRRIGATION PONDS  =           0.0000         IRRIGATION PONDS  =           0.0000
           GW IRRIGATION =           0.0000             GW IRRIGATION =           0.0000
           SW IRRIGATION =           0.0000             SW IRRIGATION =           0.0000
        SYSTEM LOSSES GW =           0.0000          SYSTEM LOSSES GW =           0.0000
        SYSTEM LOSSES SW =           0.0000          SYSTEM LOSSES SW =           0.0000

                TOTAL IN =  1747268224.0000                  TOTAL IN =           0.0000

          OUT:                                     OUT:
          ----                                     ----
               AG WELLS  =           0.0000                 AG WELLS  =           0.0000
      DIVERSION SEGMENTS =           0.0000        DIVERSION SEGMENTS =           0.0000
       IRRIGATION PONDS  =           0.0000         IRRIGATION PONDS  =           0.0000
           GW IRRIGATION =   520990304.0000             GW IRRIGATION =           0.0000
           SW IRRIGATION =  1226299008.0000             SW IRRIGATION =           0.0000
        SYSTEM LOSSES GW =           0.0000          SYSTEM LOSSES GW =           0.0000
        SYSTEM LOSSES SW =           0.0000          SYSTEM LOSSES SW =           0.0000

               TOTAL OUT =  1747289344.0000                 TOTAL OUT =           0.0000

                IN - OUT =      -21120.0000                  IN - OUT =           0.0000

     PERCENT DISCREPANCY =          -0.00         PERCENT DISCREPANCY =           0.00



1
  VOLUMETRIC BUDGET FOR ENTIRE MODEL AT END OF TIME STEP   30, STRESS PERIOD  48
  ------------------------------------------------------------------------------

     CUMULATIVE VOLUMES      L**3       RATES FOR THIS TIME STEP      L**3/T
     ------------------                 ------------------------

           IN:                                      IN:
           ---                                      ---
             STORAGE     =   869440320.0000               STORAGE     =           3.4032
       CONSTANT HEAD     =           0.0000         CONSTANT HEAD     =           0.0000
     HEAD DEP BOUNDS     =    35383472.0000       HEAD DEP BOUNDS     =           0.2869
      STREAM LEAKAGE     =  1483523840.0000        STREAM LEAKAGE     =          11.4892
        UZF RECHARGE     =       73223.9531          UZF RECHARGE     =           0.0000
               GW ET     =           0.0000                 GW ET     =           0.0000
     SURFACE LEAKAGE     =           0.0000       SURFACE LEAKAGE     =           0.0000
           AG WELLS      =           0.0000             AG WELLS      =           0.0000

                TOTAL IN =  2388420864.0000                  TOTAL IN =          15.1792

          OUT:                                     OUT:
          ----                                     ----
             STORAGE     =   506362784.0000               STORAGE     =           4.4506
       CONSTANT HEAD     =           0.0000         CONSTANT HEAD     =           0.0000
     HEAD DEP BOUNDS     =    35941588.0000       HEAD DEP BOUNDS     =           0.2887
      STREAM LEAKAGE     =  1321791232.0000        STREAM LEAKAGE     =          10.4403
        UZF RECHARGE     =           0.0000          UZF RECHARGE     =           0.0000
               GW ET     =     3343843.5000                 GW ET     =           0.0000
     SURFACE LEAKAGE     =           0.0000       SURFACE LEAKAGE     =           0.0000
           AG WELLS      =   520990304.0000             AG WELLS      =           0.0000

               TOTAL OUT =  2388429824.0000                 TOTAL OUT =          15.1795

                IN - OUT =       -8960.0000                  IN - OUT =      -2.9469E-04

     PERCENT DISCREPANCY =          -0.00         PERCENT DISCREPANCY =          -0.00






         TIME SUMMARY AT END OF TIME STEP   30 IN STRESS PERIOD   48
                    SECONDS     MINUTES      HOURS       DAYS        YEARS
                    -----------------------------------------------------------
   TIME STEP LENGTH  87667.      1461.1      24.352      1.0147     2.77799E-03
 STRESS PERIOD TIME 2.63000E+06  43833.      730.56      30.440     8.33397E-02
         TOTAL TIME 1.23695E+08 2.06158E+06  34360.      1431.7      3.9197    
1
1
                            STRESS PERIOD NO.   49, LENGTH =   2630000.    
                            -----------------------------------------------

                              NUMBER OF TIME STEPS =    30

                               MULTIPLIER FOR DELT =     1.000

                            INITIAL TIME STEP SIZE =   87666.66    

 REUSING NON-PARAMETER GHB CELLS FROM LAST STRESS PERIOD

      2 GHB CELLS

 REUSING STREAM SEGMENT DATA FROM LAST STRESS PERIOD



            AREAL INFILTRATION RATE
 READING ON UNIT   19 WITH FORMAT: (FREE)              

            1           2           3           4           5           6           7           8           9          10
 ........................................................................................................................
   1   1.0000E-10  2.0000E-10   0.000       0.000       0.000       0.000       0.000       0.000       0.000       0.000    
   2   2.0000E-10  1.0000E-10  2.0000E-10   0.000       0.000      8.0000E-10  8.0000E-10  5.0000E-10   0.000       0.000    
   3    0.000      5.0000E-10  1.0000E-10  1.0000E-10  8.0000E-10  8.0000E-10  5.0000E-10  5.0000E-10   0.000       0.000    
   4   8.0000E-10  5.0000E-10  1.0000E-10  1.0000E-10  1.0000E-10  1.0000E-10  1.0000E-10  1.0000E-10  2.0000E-10   0.000    
   5   8.0000E-10  5.0000E-10  1.0000E-10  1.0000E-10  1.0000E-10  1.0000E-10  1.0000E-10  1.0000E-10  1.0000E-10  1.0000E-10
   6   8.0000E-10  5.0000E-10  5.0000E-10  2.0000E-10  2.0000E-10  1.0000E-10  1.0000E-10  1.0000E-10  1.0000E-10  5.0000E-10
   7   8.0000E-10  5.0000E-10  5.0000E-10  2.0000E-10  2.0000E-10  1.0000E-10  1.0000E-10  2.0000E-10  2.0000E-10   0.000    
   8    0.000      5.0000E-10  5.0000E-10  2.0000E-10  2.0000E-10  1.0000E-10  1.0000E-10  2.0000E-10  5.0000E-10   0.000    
   9    0.000      5.0000E-10  5.0000E-10  2.0000E-10  2.0000E-10  1.0000E-10  1.0000E-10  2.0000E-10  5.0000E-10   0.000    
  10    0.000      5.0000E-10  5.0000E-10  2.0000E-10  2.0000E-10  1.0000E-10  1.0000E-10  2.0000E-10  5.0000E-10  8.0000E-10
  11    0.000      1.0000E-10  1.0000E-10  1.0000E-10  1.0000E-10  1.0000E-10  1.0000E-10  2.0000E-10  5.0000E-10   0.000    
  12   1.0000E-10  1.0000E-10  1.0000E-10  1.0000E-10  1.0000E-10  1.0000E-10  1.0000E-10  1.0000E-10  2.0000E-10   0.000    
  13   1.0000E-10  1.0000E-10  2.0000E-10  2.0000E-10  2.0000E-10  2.0000E-10  2.0000E-10  1.0000E-10  1.0000E-10   0.000    
  14    0.000      2.0000E-10  5.0000E-10  5.0000E-10  5.0000E-10  5.0000E-10  5.0000E-10  2.0000E-10  1.0000E-10   0.000    
  15    0.000       0.000      8.0000E-10  8.0000E-10  8.0000E-10  8.0000E-10   0.000       0.000       0.000       0.000    

                  ET RATE =  5.000000E-10

 USING ET EXTINCTION DEPTH FROM PREVIOUS STRESS PERIOD. CURRENT PERIOD IS:      49

 USING EXTINCTION WATER CONTENT FROM PREVIOUS STRESS PERIOD. CURRENT PERIOD IS:      49

 USING AIR ENTRY PRESSURE FROM PREVIOUS STRESS PERIOD. CURRENT PERIOD IS:      49

 USING ROOT PRESSURE HEAD FROM PREVIOUS STRESS PERIOD. CURRENT PERIOD IS:      49

 USING ROOT ACTIVITY FROM PREVIOUS STRESS PERIOD. CURRENT PERIOD IS:      49

 PROCESSING AG STRESS PERIOD DATA

 READING AG STRESS PERIOD DATA

 READING IRRIGATION SEGMENT

 READING IRRIGATION WELL

 READING SUPPLEMENTAL WELL

 NO IRRPOND OR REUSING IRRPOND DATA FROM LAST STRESS PERIOD

 END PROCESSING AG STRESS PERIOD DATA OPTIONS
 
 SOLVING FOR HEAD 
                                                   Max.-Head-Change                         Max.-Flux-Residual
  Residual-Control   Outer-Iter.   Inner-Iter.     Column Row Layer    Maximum-Head-Change  Column Row Layer    Maximum-Flux-Residual          L2-NORM 
          0                 1           2             4    7     1       0.1261547285E-01       4    7    1         0.6639261428E+00      0.1425000554E+01
          0                 2           2             4    7     1      -0.1227144961E-02       4    7    1        -0.6639284806E-01      0.1425002249E+00
          0                 3           1             4    7     1       0.8356399018E-04       4    7    1         0.4647499150E-02      0.9975018609E-02

    ------------------------------------------------
       NWT REQUIRED            3 OUTER ITERATIONS 
       AND A TOTAL OF          5 INNER ITERATIONS.
    ------------------------------------------------

 NO OUTPUT CONTROL FOR STRESS PERIOD   49   TIME STEP    1
 
 SOLVING FOR HEAD 
                                                   Max.-Head-Change                         Max.-Flux-Residual
  Residual-Control   Outer-Iter.   Inner-Iter.     Column Row Layer    Maximum-Head-Change  Column Row Layer    Maximum-Flux-Residual          L2-NORM 
          0                 1           2             4    7     1       0.1245589589E-01       4    7    1         0.6554854418E+00      0.1410161690E+01
          0                 2           2             4    7     1      -0.1211622385E-02       4    7    1        -0.6554877194E-01      0.1410163226E+00
          0                 3           1             4    7     1       0.8250696155E-04       4    7    1         0.4588413862E-02      0.9871141553E-02

    ------------------------------------------------
       NWT REQUIRED            3 OUTER ITERATIONS 
       AND A TOTAL OF          5 INNER ITERATIONS.
    ------------------------------------------------

 NO OUTPUT CONTROL FOR STRESS PERIOD   49   TIME STEP    2
 
 SOLVING FOR HEAD 
                                                   Max.-Head-Change                         Max.-Flux-Residual
  Residual-Control   Outer-Iter.   Inner-Iter.     Column Row Layer    Maximum-Head-Change  Column Row Layer    Maximum-Flux-Residual          L2-NORM 
          0                 1           2             4    7     1       0.1229905931E-01       4    7    1         0.6471894759E+00      0.1395592973E+01
          0                 2           2             4    7     1      -0.1196366376E-02       4    7    1        -0.6471916952E-01      0.1395594489E+00
          0                 3           1             4    7     1       0.8146808493E-04       4    7    1         0.4530341730E-02      0.9769164182E-02

    ------------------------------------------------
       NWT REQUIRED            3 OUTER ITERATIONS 
       AND A TOTAL OF          5 INNER ITERATIONS.
    ------------------------------------------------

 NO OUTPUT CONTROL FOR STRESS PERIOD   49   TIME STEP    3
 
 SOLVING FOR HEAD 
                                                   Max.-Head-Change                         Max.-Flux-Residual
  Residual-Control   Outer-Iter.   Inner-Iter.     Column Row Layer    Maximum-Head-Change  Column Row Layer    Maximum-Flux-Residual          L2-NORM 
          0                 1           2             4    7     1       0.1214516599E-01       4    7    1         0.6390503292E+00      0.1382178553E+01
          0                 2           2             4    7     1      -0.1181396669E-02       4    7    1        -0.6390524917E-01      0.1382173368E+00
          0                 3           1             4    7     1       0.8044870404E-04       4    7    1         0.4473367335E-02      0.9675169191E-02

    ------------------------------------------------
       NWT REQUIRED            3 OUTER ITERATIONS 
       AND A TOTAL OF          5 INNER ITERATIONS.
    ------------------------------------------------

 NO OUTPUT CONTROL FOR STRESS PERIOD   49   TIME STEP    4
 
 SOLVING FOR HEAD 
                                                   Max.-Head-Change                         Max.-Flux-Residual
  Residual-Control   Outer-Iter.   Inner-Iter.     Column Row Layer    Maximum-Head-Change  Column Row Layer    Maximum-Flux-Residual          L2-NORM 
          0                 1           2             4    7     1       0.1199388111E-01       4    7    1         0.6310490513E+00      0.1369090771E+01
          0                 2           2             4    7     1      -0.1166680694E-02       4    7    1        -0.6310511589E-01      0.1369073355E+00
          0                 3           1             4    7     1       0.7944660124E-04       4    7    1         0.4417358020E-02      0.9583337749E-02

    ------------------------------------------------
       NWT REQUIRED            3 OUTER ITERATIONS 
       AND A TOTAL OF          5 INNER ITERATIONS.
    ------------------------------------------------

 NO OUTPUT CONTROL FOR STRESS PERIOD   49   TIME STEP    5
 
 SOLVING FOR HEAD 
                                                   Max.-Head-Change                         Max.-Flux-Residual
  Residual-Control   Outer-Iter.   Inner-Iter.     Column Row Layer    Maximum-Head-Change  Column Row Layer    Maximum-Flux-Residual          L2-NORM 
          0                 1           2             4    7     1       0.1184514184E-01       4    7    1         0.6231830161E+00      0.1355204187E+01
          0                 2           2             4    7     1      -0.1152220579E-02       4    7    1        -0.6231850698E-01      0.1355384295E+00
          0                 3           1             4    7     1       0.7846192174E-04       4    7    1         0.4362295436E-02      0.9487535386E-02

    ------------------------------------------------
       NWT REQUIRED            3 OUTER ITERATIONS 
       AND A TOTAL OF          5 INNER ITERATIONS.
    ------------------------------------------------

 NO OUTPUT CONTROL FOR STRESS PERIOD   49   TIME STEP    6
 
 SOLVING FOR HEAD 
                                                   Max.-Head-Change                         Max.-Flux-Residual
  Residual-Control   Outer-Iter.   Inner-Iter.     Column Row Layer    Maximum-Head-Change  Column Row Layer    Maximum-Flux-Residual          L2-NORM 
          0                 1           2             4    7     1       0.1169909725E-01       4    7    1         0.6154632653E+00      0.1341563018E+01
          0                 2           2             4    7     1      -0.1138006116E-02       4    7    1        -0.6154652681E-01      0.1341549371E+00
          0                 3           1             4    7     1       0.7749397042E-04       4    7    1         0.4308256849E-02      0.9390701592E-02

    ------------------------------------------------
       NWT REQUIRED            3 OUTER ITERATIONS 
       AND A TOTAL OF          5 INNER ITERATIONS.
    ------------------------------------------------

 NO OUTPUT CONTROL FOR STRESS PERIOD   49   TIME STEP    7
 
 SOLVING FOR HEAD 
                                                   Max.-Head-Change                         Max.-Flux-Residual
  Residual-Control   Outer-Iter.   Inner-Iter.     Column Row Layer    Maximum-Head-Change  Column Row Layer    Maximum-Flux-Residual          L2-NORM 
          0                 1           2             4    7     1       0.1155543892E-01       4    7    1         0.6078693675E+00      0.1328078617E+01
          0                 2           2             4    7     1      -0.1124032004E-02       4    7    1        -0.6078713206E-01      0.1328066172E+00
          0                 3           1             4    7     1       0.7654238566E-04       4    7    1         0.4255099220E-02      0.9296340716E-02

    ------------------------------------------------
       NWT REQUIRED            3 OUTER ITERATIONS 
       AND A TOTAL OF          5 INNER ITERATIONS.
    ------------------------------------------------

 NO OUTPUT CONTROL FOR STRESS PERIOD   49   TIME STEP    8
 
 SOLVING FOR HEAD 
                                                   Max.-Head-Change                         Max.-Flux-Residual
  Residual-Control   Outer-Iter.   Inner-Iter.     Column Row Layer    Maximum-Head-Change  Column Row Layer    Maximum-Flux-Residual          L2-NORM 
          0                 1           2             4    7     1       0.1141425825E-01       4    7    1         0.6004061244E+00      0.1314841034E+01
          0                 2           2             4    7     1      -0.1110298902E-02       4    7    1        -0.6004080288E-01      0.1314829820E+00
          0                 3           1             4    7     1       0.7560721335E-04       4    7    1         0.4202856221E-02      0.9203711277E-02

    ------------------------------------------------
       NWT REQUIRED            3 OUTER ITERATIONS 
       AND A TOTAL OF          5 INNER ITERATIONS.
    ------------------------------------------------

 NO OUTPUT CONTROL FOR STRESS PERIOD   49   TIME STEP    9
 
 SOLVING FOR HEAD 
                                                   Max.-Head-Change                         Max.-Flux-Residual
  Residual-Control   Outer-Iter.   Inner-Iter.     Column Row Layer    Maximum-Head-Change  Column Row Layer    Maximum-Flux-Residual          L2-NORM 
          0                 1           2             4    7     1       0.1127550035E-01       4    7    1         0.5930713438E+00      0.1301822826E+01
          0                 2           2             4    7     1      -0.1096801472E-02       4    7    1        -0.5930732011E-01      0.1301812891E+00
          0                 3           1             4    7     1       0.7468808903E-04       4    7    1         0.4151512444E-02      0.9112615452E-02

    ------------------------------------------------
       NWT REQUIRED            3 OUTER ITERATIONS 
       AND A TOTAL OF          5 INNER ITERATIONS.
    ------------------------------------------------

 NO OUTPUT CONTROL FOR STRESS PERIOD   49   TIME STEP   10
 
 SOLVING FOR HEAD 
                                                   Max.-Head-Change                         Max.-Flux-Residual
  Residual-Control   Outer-Iter.   Inner-Iter.     Column Row Layer    Maximum-Head-Change  Column Row Layer    Maximum-Flux-Residual          L2-NORM 
          0                 1           2             4    7     1       0.1113911814E-01       4    7    1         0.5858621809E+00      0.1289024392E+01
          0                 2           2             4    7     1      -0.1083535133E-02       4    7    1        -0.5858639925E-01      0.1289014814E+00
          0                 3           1             4    7     1       0.7378470100E-04       4    7    1         0.4101047988E-02      0.9023005781E-02

    ------------------------------------------------
       NWT REQUIRED            3 OUTER ITERATIONS 
       AND A TOTAL OF          5 INNER ITERATIONS.
    ------------------------------------------------

 NO OUTPUT CONTROL FOR STRESS PERIOD   49   TIME STEP   11
 
 SOLVING FOR HEAD 
                                                   Max.-Head-Change                         Max.-Flux-Residual
  Residual-Control   Outer-Iter.   Inner-Iter.     Column Row Layer    Maximum-Head-Change  Column Row Layer    Maximum-Flux-Residual          L2-NORM 
          0                 1           2             4    7     1       0.1100506015E-01       4    7    1         0.5787761935E+00      0.1276449095E+01
          0                 2           2             4    7     1      -0.1070494881E-02       4    7    1        -0.5787779601E-01      0.1276440624E+00
          0                 3           1             4    7     1       0.7289670904E-04       4    7    1         0.4051445800E-02      0.8934997719E-02

    ------------------------------------------------
       NWT REQUIRED            3 OUTER ITERATIONS 
       AND A TOTAL OF          5 INNER ITERATIONS.
    ------------------------------------------------

 NO OUTPUT CONTROL FOR STRESS PERIOD   49   TIME STEP   12
 
 SOLVING FOR HEAD 
                                                   Max.-Head-Change                         Max.-Flux-Residual
  Residual-Control   Outer-Iter.   Inner-Iter.     Column Row Layer    Maximum-Head-Change  Column Row Layer    Maximum-Flux-Residual          L2-NORM 
          0                 1           2             4    7     1       0.1087328084E-01       4    7    1         0.5718107140E+00      0.1264084305E+01
          0                 2           2             4    7     1      -0.1057676283E-02       4    7    1        -0.5718124371E-01      0.1264076815E+00
          0                 3           1             4    7     1       0.7202381091E-04       4    7    1         0.4002687177E-02      0.8848470894E-02

    ------------------------------------------------
       NWT REQUIRED            3 OUTER ITERATIONS 
       AND A TOTAL OF          5 INNER ITERATIONS.
    ------------------------------------------------

 NO OUTPUT CONTROL FOR STRESS PERIOD   49   TIME STEP   13
 
 SOLVING FOR HEAD 
                                                   Max.-Head-Change                         Max.-Flux-Residual
  Residual-Control   Outer-Iter.   Inner-Iter.     Column Row Layer    Maximum-Head-Change  Column Row Layer    Maximum-Flux-Residual          L2-NORM 
          0                 1           2             4    7     1       0.1074373484E-01       4    7    1         0.5649633803E+00      0.1251924946E+01
          0                 2           2             4    7     1      -0.1045074926E-02       4    7    1        -0.5649650611E-01      0.1251918089E+00
          0                 3           1             4    7     1       0.7116570546E-04       4    7    1         0.3954755543E-02      0.8763634498E-02

    ------------------------------------------------
       NWT REQUIRED            3 OUTER ITERATIONS 
       AND A TOTAL OF          5 INNER ITERATIONS.
    ------------------------------------------------

 NO OUTPUT CONTROL FOR STRESS PERIOD   49   TIME STEP   14
 
 SOLVING FOR HEAD 
                                                   Max.-Head-Change                         Max.-Flux-Residual
  Residual-Control   Outer-Iter.   Inner-Iter.     Column Row Layer    Maximum-Head-Change  Column Row Layer    Maximum-Flux-Residual          L2-NORM 
          0                 1           2             4    7     1       0.1061637662E-01       4    7    1         0.5582318398E+00      0.1239970718E+01
          0                 2           2             4    7     1      -0.1032686383E-02       4    7    1        -0.5582334792E-01      0.1239964270E+00
          0                 3           1             4    7     1       0.7032209199E-04       4    7    1         0.3907634479E-02      0.8679673765E-02

    ------------------------------------------------
       NWT REQUIRED            3 OUTER ITERATIONS 
       AND A TOTAL OF          5 INNER ITERATIONS.
    ------------------------------------------------

 NO OUTPUT CONTROL FOR STRESS PERIOD   49   TIME STEP   15
 
 SOLVING FOR HEAD 
                                                   Max.-Head-Change                         Max.-Flux-Residual
  Residual-Control   Outer-Iter.   Inner-Iter.     Column Row Layer    Maximum-Head-Change  Column Row Layer    Maximum-Flux-Residual          L2-NORM 
          0                 1           2             4    7     1       0.1049116113E-01       4    7    1         0.5516137333E+00      0.1228214231E+01
          0                 2           2             4    7     1      -0.1020506271E-02       4    7    1        -0.5516153326E-01      0.1228208263E+00
          0                 3           1             4    7     1       0.6949267252E-04       4    7    1         0.3861307493E-02      0.8597417939E-02

    ------------------------------------------------
       NWT REQUIRED            3 OUTER ITERATIONS 
       AND A TOTAL OF          5 INNER ITERATIONS.
    ------------------------------------------------

 NO OUTPUT CONTROL FOR STRESS PERIOD   49   TIME STEP   16
 
 SOLVING FOR HEAD 
                                                   Max.-Head-Change                         Max.-Flux-Residual
  Residual-Control   Outer-Iter.   Inner-Iter.     Column Row Layer    Maximum-Head-Change  Column Row Layer    Maximum-Flux-Residual          L2-NORM 
          0                 1           2             4    7     1       0.1036818008E-01       4    7    1         0.5451140936E+00      0.1216648528E+01
          0                 2           2             4    7     1      -0.1008543510E-02       4    7    1        -0.5451156539E-01      0.1216643080E+00
          0                 3           1             4    7     1       0.6867805329E-04       4    7    1         0.3815809753E-02      0.8516462925E-02

    ------------------------------------------------
       NWT REQUIRED            3 OUTER ITERATIONS 
       AND A TOTAL OF          5 INNER ITERATIONS.
    ------------------------------------------------

 NO OUTPUT CONTROL FOR STRESS PERIOD   49   TIME STEP   17
 
 SOLVING FOR HEAD 
                                                   Max.-Head-Change                         Max.-Flux-Residual
  Residual-Control   Outer-Iter.   Inner-Iter.     Column Row Layer    Maximum-Head-Change  Column Row Layer    Maximum-Flux-Residual          L2-NORM 
          0                 1           2             4    7     1       0.1024711303E-01       4    7    1         0.5387155666E+00      0.1205273804E+01
          0                 2           2             4    7     1      -0.9967669301E-03       4    7    1        -0.5387170886E-01      0.1205268770E+00
          0                 3           1             4    7     1       0.6787611242E-04       4    7    1         0.3771019815E-02      0.8436827252E-02

    ------------------------------------------------
       NWT REQUIRED            3 OUTER ITERATIONS 
       AND A TOTAL OF          5 INNER ITERATIONS.
    ------------------------------------------------

 NO OUTPUT CONTROL FOR STRESS PERIOD   49   TIME STEP   18
 
 SOLVING FOR HEAD 
                                                   Max.-Head-Change                         Max.-Flux-Residual
  Residual-Control   Outer-Iter.   Inner-Iter.     Column Row Layer    Maximum-Head-Change  Column Row Layer    Maximum-Flux-Residual          L2-NORM 
          0                 1           2             4    7     1       0.1012819404E-01       4    7    1         0.5324310172E+00      0.1194085242E+01
          0                 2           2             4    7     1      -0.9851993006E-03       4    7    1        -0.5324325023E-01      0.1194080366E+00
          0                 3           1             4    7     1       0.6708840034E-04       4    7    1         0.3727027721E-02      0.8358501446E-02

    ------------------------------------------------
       NWT REQUIRED            3 OUTER ITERATIONS 
       AND A TOTAL OF          5 INNER ITERATIONS.
    ------------------------------------------------

 NO OUTPUT CONTROL FOR STRESS PERIOD   49   TIME STEP   19
 
 SOLVING FOR HEAD 
                                                   Max.-Head-Change                         Max.-Flux-Residual
  Residual-Control   Outer-Iter.   Inner-Iter.     Column Row Layer    Maximum-Head-Change  Column Row Layer    Maximum-Flux-Residual          L2-NORM 
          0                 1           2             4    7     1       0.1001123459E-01       4    7    1         0.5262504719E+00      0.1183065042E+01
          0                 2           2             4    7     1      -0.9738222817E-03       4    7    1        -0.5262519210E-01      0.1183060449E+00
          0                 3           1             4    7     1       0.6631366790E-04       4    7    1         0.3683763674E-02      0.8281364122E-02

    ------------------------------------------------
       NWT REQUIRED            3 OUTER ITERATIONS 
       AND A TOTAL OF          5 INNER ITERATIONS.
    ------------------------------------------------

 NO OUTPUT CONTROL FOR STRESS PERIOD   49   TIME STEP   20
 
 SOLVING FOR HEAD 
                                                   Max.-Head-Change                         Max.-Flux-Residual
  Residual-Control   Outer-Iter.   Inner-Iter.     Column Row Layer    Maximum-Head-Change  Column Row Layer    Maximum-Flux-Residual          L2-NORM 
          0                 1           2             4    7     1       0.9896201041E-02       4    7    1         0.5201715255E+00      0.1172232392E+01
          0                 2           2             4    7     1      -0.9626326023E-03       4    7    1        -0.5201729395E-01      0.1172228333E+00
          0                 3           1             4    7     1       0.6555169262E-04       4    7    1         0.3641210805E-02      0.8205556524E-02

    ------------------------------------------------
       NWT REQUIRED            3 OUTER ITERATIONS 
       AND A TOTAL OF          5 INNER ITERATIONS.
    ------------------------------------------------

 NO OUTPUT CONTROL FOR STRESS PERIOD   49   TIME STEP   21
 
 SOLVING FOR HEAD 
                                                   Max.-Head-Change                         Max.-Flux-Residual
  Residual-Control   Outer-Iter.   Inner-Iter.     Column Row Layer    Maximum-Head-Change  Column Row Layer    Maximum-Flux-Residual          L2-NORM 
          0                 1           2             4    7     1       0.9783054543E-02       4    7    1         0.5141924344E+00      0.1161574161E+01
          0                 2           2             4    7     1      -0.9516264827E-03       4    7    1        -0.5141938142E-01      0.1161570021E+00
          0                 3           1             4    7     1       0.6480221736E-04       4    7    1         0.3599356954E-02      0.8130941077E-02

    ------------------------------------------------
       NWT REQUIRED            3 OUTER ITERATIONS 
       AND A TOTAL OF          5 INNER ITERATIONS.
    ------------------------------------------------

 NO OUTPUT CONTROL FOR STRESS PERIOD   49   TIME STEP   22
 
 SOLVING FOR HEAD 
                                                   Max.-Head-Change                         Max.-Flux-Residual
  Residual-Control   Outer-Iter.   Inner-Iter.     Column Row Layer    Maximum-Head-Change  Column Row Layer    Maximum-Flux-Residual          L2-NORM 
          0                 1           2             4    7     1       0.9671887748E-02       4    7    1         0.5083185547E+00      0.1151081665E+01
          0                 2           2             4    7     1      -0.9408129354E-03       4    7    1        -0.5083199013E-01      0.1151077933E+00
          0                 3           1             4    7     1       0.6406585498E-04       4    7    1         0.3558239565E-02      0.8057510898E-02

    ------------------------------------------------
       NWT REQUIRED            3 OUTER ITERATIONS 
       AND A TOTAL OF          5 INNER ITERATIONS.
    ------------------------------------------------

 NO OUTPUT CONTROL FOR STRESS PERIOD   49   TIME STEP   23
 
 SOLVING FOR HEAD 
                                                   Max.-Head-Change                         Max.-Flux-Residual
  Residual-Control   Outer-Iter.   Inner-Iter.     Column Row Layer    Maximum-Head-Change  Column Row Layer    Maximum-Flux-Residual          L2-NORM 
          0                 1           2             4    7     1       0.9562515819E-02       4    7    1         0.5025399490E+00      0.1140746367E+01
          0                 2           2             4    7     1      -0.9301739814E-03       4    7    1        -0.5025412633E-01      0.1140742862E+00
          0                 3           1             4    7     1       0.6334138260E-04       4    7    1         0.3517789128E-02      0.7985168761E-02

    ------------------------------------------------
       NWT REQUIRED            3 OUTER ITERATIONS 
       AND A TOTAL OF          5 INNER ITERATIONS.
    ------------------------------------------------

 NO OUTPUT CONTROL FOR STRESS PERIOD   49   TIME STEP   24
 
 SOLVING FOR HEAD 
                                                   Max.-Head-Change                         Max.-Flux-Residual
  Residual-Control   Outer-Iter.   Inner-Iter.     Column Row Layer    Maximum-Head-Change  Column Row Layer    Maximum-Flux-Residual          L2-NORM 
          0                 1           2             4    7     1       0.9455043436E-02       4    7    1         0.4968617753E+00      0.1130583718E+01
          0                 2           2             4    7     1      -0.9197198024E-03       4    7    1        -0.4968630581E-01      0.1130580151E+00
          0                 3           1             4    7     1       0.6262949211E-04       4    7    1         0.3478041701E-02      0.7914020498E-02

    ------------------------------------------------
       NWT REQUIRED            3 OUTER ITERATIONS 
       AND A TOTAL OF          5 INNER ITERATIONS.
    ------------------------------------------------

 NO OUTPUT CONTROL FOR STRESS PERIOD   49   TIME STEP   25
 
 SOLVING FOR HEAD 
                                                   Max.-Head-Change                         Max.-Flux-Residual
  Residual-Control   Outer-Iter.   Inner-Iter.     Column Row Layer    Maximum-Head-Change  Column Row Layer    Maximum-Flux-Residual          L2-NORM 
          0                 1           2             4    7     1       0.9349154575E-02       4    7    1         0.4912673480E+00      0.1120575164E+01
          0                 2           2             4    7     1      -0.9094196582E-03       4    7    1        -0.4912686003E-01      0.1120571825E+00
          0                 3           1             4    7     1       0.6192809087E-04       4    7    1         0.3438880504E-02      0.7843956407E-02

    ------------------------------------------------
       NWT REQUIRED            3 OUTER ITERATIONS 
       AND A TOTAL OF          5 INNER ITERATIONS.
    ------------------------------------------------

 NO OUTPUT CONTROL FOR STRESS PERIOD   49   TIME STEP   26
 
 SOLVING FOR HEAD 
                                                   Max.-Head-Change                         Max.-Flux-Residual
  Residual-Control   Outer-Iter.   Inner-Iter.     Column Row Layer    Maximum-Head-Change  Column Row Layer    Maximum-Flux-Residual          L2-NORM 
          0                 1           2             4    7     1       0.9245080951E-02       4    7    1         0.4857771379E+00      0.1231567191E+01
          0                 2           2             7   13     1      -0.1327251330E-02       7   13    1        -0.7203377692E-01      0.1431779345E+00
          0                 3           2             7   13     1       0.1290445931E-03       7   13    1         0.7196882822E-02      0.1124736120E-01
          0                 4           1             7   13     1      -0.8776490797E-05       7   13    1        -0.5029444615E-03      0.6144089381E-03

    ------------------------------------------------
       NWT REQUIRED            4 OUTER ITERATIONS 
       AND A TOTAL OF          7 INNER ITERATIONS.
    ------------------------------------------------

 NO OUTPUT CONTROL FOR STRESS PERIOD   49   TIME STEP   27
 
 SOLVING FOR HEAD 
                                                   Max.-Head-Change                         Max.-Flux-Residual
  Residual-Control   Outer-Iter.   Inner-Iter.     Column Row Layer    Maximum-Head-Change  Column Row Layer    Maximum-Flux-Residual          L2-NORM 
          0                 1           2             4    7     1       0.9142559218E-02       4    7    1         0.4803607915E+00      0.1102590439E+01
          0                 2           2             4    7     1      -0.8902100087E-03       4    7    1        -0.4810224119E-01      0.1102814859E+00
          0                 3           1             4    7     1       0.6061998303E-04       4    7    1         0.3367157035E-02      0.7719669441E-02

    ------------------------------------------------
       NWT REQUIRED            3 OUTER ITERATIONS 
       AND A TOTAL OF          5 INNER ITERATIONS.
    ------------------------------------------------

 NO OUTPUT CONTROL FOR STRESS PERIOD   49   TIME STEP   28
 
 SOLVING FOR HEAD 
                                                   Max.-Head-Change                         Max.-Flux-Residual
  Residual-Control   Outer-Iter.   Inner-Iter.     Column Row Layer    Maximum-Head-Change  Column Row Layer    Maximum-Flux-Residual          L2-NORM 
          0                 1           2             4    7     1       0.9038225397E-02       4    7    1         0.4749959908E+00      0.1092996849E+01
          0                 2           2             4    7     1      -0.8791748454E-03       4    7    1        -0.4749973277E-01      0.1092994207E+00
          0                 3           1             4    7     1       0.5986852989E-04       4    7    1         0.3324981464E-02      0.7650926081E-02

    ------------------------------------------------
       NWT REQUIRED            3 OUTER ITERATIONS 
       AND A TOTAL OF          5 INNER ITERATIONS.
    ------------------------------------------------

 NO OUTPUT CONTROL FOR STRESS PERIOD   49   TIME STEP   29
 
 SOLVING FOR HEAD 
                                                   Max.-Head-Change                         Max.-Flux-Residual
  Residual-Control   Outer-Iter.   Inner-Iter.     Column Row Layer    Maximum-Head-Change  Column Row Layer    Maximum-Flux-Residual          L2-NORM 
          0                 1           2             4    7     1       0.8936462219E-02       4    7    1         0.4696115443E+00      0.1083516783E+01
          0                 2           2             4    7     1      -0.8692760085E-03       4    7    1        -0.4696128442E-01      0.1083514146E+00
          0                 3           1             4    7     1       0.5919445613E-04       4    7    1         0.3287290090E-02      0.7584574085E-02

    ------------------------------------------------
       NWT REQUIRED            3 OUTER ITERATIONS 
       AND A TOTAL OF          5 INNER ITERATIONS.
    ------------------------------------------------

 NO OUTPUT CONTROL FOR STRESS PERIOD   49   TIME STEP   30



 STREAM LISTING     PERIOD     49   STEP       30

 LAYER ROW COL. STREAM  RCH.  FLOW INTO     FLOW TO   FLOW OUT OF   OVRLND.     DIRECT     STREAM       STREAM     STREAM     STREAM   STREAMBED  STREAMBED
                SEG.NO.  NO.  STRM. RCH.    AQUIFER    STRM. RCH.    RUNOFF     PRECIP       ET          HEAD       DEPTH      WIDTH   CONDCTNC.   GRADIENT

   1    1    1     1     1    1.4250E+01  1.8169E-01   1.4068E+01  0.000E+00  0.000E+00  0.000E+00  1.09404E+03  9.953E-01  1.011E+01  4.547E-02  1.332E+00
   1    2    2     1     2    1.4068E+01  2.7999E-01   1.3788E+01  0.000E+00  0.000E+00  0.000E+00  1.08905E+03  9.906E-01  1.002E+01  7.016E-02  1.330E+00
   1    3    3     1     3    1.3788E+01  2.3745E-01   1.3551E+01  0.000E+00  0.000E+00  0.000E+00  1.08340E+03  9.852E-01  9.930E+00  5.958E-02  1.328E+00
   1    3    4     1     4    1.3551E+01  2.1755E-01   1.3333E+01  0.000E+00  0.000E+00  0.000E+00  1.07839E+03  9.805E-01  9.848E+00  5.465E-02  1.327E+00
   1    4    5     2     1    1.1333E+01  2.9214E-01   1.1041E+01  0.000E+00  0.000E+00  0.000E+00  1.07268E+03  7.454E-01  1.200E+01  7.800E-02  1.248E+00
   1    5    6     2     2    1.1041E+01  2.2410E-01   1.0817E+01  0.000E+00  0.000E+00  0.000E+00  1.06724E+03  7.350E-01  1.200E+01  6.000E-02  1.245E+00
   1    6    6     2     3    1.0817E+01  2.2356E-01   1.0594E+01  0.000E+00  0.000E+00  0.000E+00  1.06252E+03  7.259E-01  1.200E+01  6.000E-02  1.242E+00
   1    7    6     2     4    1.0594E+01  2.2301E-01   1.0371E+01  0.000E+00  0.000E+00  0.000E+00  1.05779E+03  7.168E-01  1.200E+01  6.000E-02  1.239E+00
   1    8    6     2     5    1.0371E+01  2.2246E-01   1.0148E+01  0.000E+00  0.000E+00  0.000E+00  1.05307E+03  7.076E-01  1.200E+01  6.000E-02  1.236E+00
   1    3    5     3     1    2.0000E+00  2.8252E-01   1.7175E+00  0.000E+00  0.000E+00  0.000E+00  1.07555E+03  1.909E+00  9.636E+00  7.227E-02  1.955E+00
   1    3    6     3     2    1.7175E+00  2.4905E-01   1.4684E+00  0.000E+00  0.000E+00  0.000E+00  1.07264E+03  1.727E+00  8.909E+00  6.682E-02  1.864E+00
   1    3    7     3     3    1.4684E+00  1.9718E-01   1.2712E+00  0.000E+00  0.000E+00  0.000E+00  1.06987E+03  1.555E+00  8.218E+00  5.547E-02  1.777E+00
   1    4    8     3     4    1.2712E+00  2.2567E-01   1.0456E+00  0.000E+00  0.000E+00  0.000E+00  1.06682E+03  1.364E+00  7.455E+00  6.709E-02  1.682E+00
   1    5    8     3     5    1.0456E+00  1.5790E-01   8.8768E-01  0.000E+00  0.000E+00  0.000E+00  1.06362E+03  1.164E+00  6.655E+00  4.991E-02  1.582E+00
   1    6    8     3     6    8.8768E-01  5.5980E-02   8.3170E-01  0.000E+00  0.000E+00  0.000E+00  1.06158E+03  1.036E+00  6.145E+00  1.844E-02  1.518E+00
   1    5   10     4     1    1.0000E+01  9.0919E-02   9.9091E+00  0.000E+00  0.000E+00  0.000E+00  1.07836E+03  6.368E-01  1.000E+01  2.500E-02  1.212E+00
   1    5    9     4     2    9.9091E+00  1.8158E-01   9.7275E+00  0.000E+00  0.000E+00  0.000E+00  1.07154E+03  6.315E-01  1.000E+01  5.000E-02  1.211E+00
   1    6    8     4     3    9.7275E+00  1.2689E-01   9.6006E+00  0.000E+00  0.000E+00  0.000E+00  1.06381E+03  6.256E-01  1.000E+01  3.500E-02  1.209E+00
   1    6    8     5     1    1.0432E+01  2.2686E-01   1.0205E+01  0.000E+00  0.000E+00  0.000E+00  1.05868E+03  6.790E-01  1.542E+01  6.166E-02  1.226E+00
   1    7    7     5     2    1.0205E+01  2.7894E-01   9.9265E+00  0.000E+00  0.000E+00  0.000E+00  1.05417E+03  6.732E-01  1.519E+01  7.594E-02  1.224E+00
   1    8    7     5     3    9.9265E+00  1.9221E-01   9.7343E+00  0.000E+00  0.000E+00  0.000E+00  1.04992E+03  6.676E-01  1.497E+01  5.241E-02  1.223E+00
   1    8    6     5     4    9.7343E+00  1.3577E-01   9.5985E+00  0.000E+00  0.000E+00  0.000E+00  1.04691E+03  6.637E-01  1.482E+01  3.706E-02  1.221E+00
   1    9    6     6     1    1.9747E+01  2.4336E-01   1.9503E+01  0.000E+00  0.000E+00  0.000E+00  1.04378E+03  1.056E+00  1.200E+01  6.000E-02  1.352E+00
   1   10    7     6     2    1.9503E+01  2.4289E-01   1.9260E+01  0.000E+00  0.000E+00  0.000E+00  1.03923E+03  1.048E+00  1.200E+01  6.000E-02  1.349E+00
   1   11    7     6     3    1.9260E+01  2.4241E-01   1.9018E+01  0.000E+00  0.000E+00  0.000E+00  1.03468E+03  1.040E+00  1.200E+01  6.000E-02  1.347E+00
   1   12    7     6     4    1.9018E+01  2.4194E-01   1.8776E+01  0.000E+00  0.000E+00  0.000E+00  1.03012E+03  1.032E+00  1.200E+01  6.000E-02  1.344E+00
   1   13    7     6     5    1.8776E+01 -3.5011E-04   1.8776E+01  0.000E+00  0.000E+00  0.000E+00  1.02694E+03  1.028E+00  1.200E+01  2.400E-01 -4.863E-04
   1   14    9     7     1    1.5000E+02  1.3531E+00   1.4865E+02  0.000E+00  0.000E+00  0.000E+00  1.03987E+03  2.288E+00  5.529E+01  5.593E-01  8.064E-01
   1   13    8     7     2    1.4865E+02  1.8814E+00   1.4677E+02  0.000E+00  0.000E+00  0.000E+00  1.03478E+03  2.279E+00  5.526E+01  6.148E-01  1.020E+00
   1   13    7     7     3    1.4677E+02  1.5359E+00   1.4523E+02  0.000E+00  0.000E+00  0.000E+00  1.02969E+03  2.270E+00  5.521E+01  5.584E-01  9.168E-01
   1   13    6     8     1    1.6401E+02  9.5301E-01   1.6305E+02  0.000E+00  0.000E+00  0.000E+00  1.02478E+03  2.910E+00  4.219E+01  4.299E-01  7.389E-01
   1   13    5     8     2    1.6305E+02  2.0689E-01   1.6285E+02  0.000E+00  0.000E+00  0.000E+00  1.01853E+03  2.906E+00  4.213E+01  4.293E-01  1.606E-01
   1   13    4     8     3    1.6285E+02 -2.3253E+00   1.6517E+02  0.000E+00  0.000E+00  0.000E+00  1.01229E+03  2.913E+00  4.223E+01  4.304E+00 -1.801E-01
   1   13    3     8     4    1.6517E+02 -3.5857E+00   1.6876E+02  0.000E+00  0.000E+00  0.000E+00  1.00606E+03  2.932E+00  4.252E+01  4.333E+00 -2.759E-01
   1   13    2     8     5    1.6876E+02 -2.5586E+00   1.7132E+02  0.000E+00  0.000E+00  0.000E+00  9.99827E+02  2.952E+00  4.281E+01  4.363E+00 -1.955E-01
   1   13    1     8     6    1.7132E+02 -1.9777E+00   1.7329E+02  0.000E+00  0.000E+00  0.000E+00  9.94842E+02  2.967E+00  4.302E+01  2.631E+00 -2.506E-01
   1    8    6     9     1    0.0000E+00  0.0000E+00   0.0000E+00  0.000E+00  0.000E+00  0.000E+00  1.07875E+03  0.000E+00  4.000E+00  0.000E+00  1.000E+00
   1    8    5     9     2    0.0000E+00  0.0000E+00   0.0000E+00  0.000E+00  0.000E+00  0.000E+00  1.07825E+03  0.000E+00  4.000E+00  0.000E+00  1.000E+00





UNSATURATED ZONE PACKAGE VOLUMETRIC BUDGET FOR  TIME STEP    30 STRESS PERIOD   49
  ------------------------------------------------------------------------------



     CUMULATIVE VOLUMES      L**3       RATES FOR THIS TIME STEP      L**3/T
     ------------------                 ------------------------

           IN:                                      IN:
           ---                                      ---
        INFILTRATION =  1854268192.7076          INFILTRATION =           0.8475

          OUT:                                     OUT:
          ----                                     ----
              UZF ET =  1707853685.4145                UZF ET =           0.7500
        UZF RECHARGE =       73224.0000          UZF RECHARGE =       0.0000E+00

            IN - OUT =   146341283.2932              IN - OUT =       9.7500E-02

          STORAGE:                                 STORAGE:
          --------                                 --------
      STORAGE CHANGE =   146342635.8987        STORAGE CHANGE =       9.7500E-02

 PERCENT DISCREPANCY IS DIFFERENCE BETWEEN IN-OUT MINUS CHANGE IN STORAGE
 DIVIDED BY THE AVERAGE OF IN AND OUT TIMES 100

 PERCENT DISCREPANCY =          -0.00     PERCENT DISCREPANCY =           0.00






1
  VOLUMETRIC BUDGET FOR AGRICULTURAL FIELDS AT  END OF TIME STEP   30, STRESS PERIOD  49
  ------------------------------------------------------------------------------

     CUMULATIVE VOLUMES      L**3       RATES FOR THIS TIME STEP      L**3/T
     ------------------                 ------------------------

           IN:                                      IN:
           ---                                      ---
               AG WELLS  =   520990304.0000                 AG WELLS  =           0.0000
      DIVERSION SEGMENTS =  1226277888.0000        DIVERSION SEGMENTS =           0.0000
       IRRIGATION PONDS  =           0.0000         IRRIGATION PONDS  =           0.0000
           GW IRRIGATION =           0.0000             GW IRRIGATION =           0.0000
           SW IRRIGATION =           0.0000             SW IRRIGATION =           0.0000
        SYSTEM LOSSES GW =           0.0000          SYSTEM LOSSES GW =           0.0000
        SYSTEM LOSSES SW =           0.0000          SYSTEM LOSSES SW =           0.0000

                TOTAL IN =  1747268224.0000                  TOTAL IN =           0.0000

          OUT:                                     OUT:
          ----                                     ----
               AG WELLS  =           0.0000                 AG WELLS  =           0.0000
      DIVERSION SEGMENTS =           0.0000        DIVERSION SEGMENTS =           0.0000
       IRRIGATION PONDS  =           0.0000         IRRIGATION PONDS  =           0.0000
           GW IRRIGATION =   520990304.0000             GW IRRIGATION =           0.0000
           SW IRRIGATION =  1226299008.0000             SW IRRIGATION =           0.0000
        SYSTEM LOSSES GW =           0.0000          SYSTEM LOSSES GW =           0.0000
        SYSTEM LOSSES SW =           0.0000          SYSTEM LOSSES SW =           0.0000

               TOTAL OUT =  1747289344.0000                 TOTAL OUT =           0.0000

                IN - OUT =      -21120.0000                  IN - OUT =           0.0000

     PERCENT DISCREPANCY =          -0.00         PERCENT DISCREPANCY =           0.00



1
  VOLUMETRIC BUDGET FOR ENTIRE MODEL AT END OF TIME STEP   30, STRESS PERIOD  49
  ------------------------------------------------------------------------------

     CUMULATIVE VOLUMES      L**3       RATES FOR THIS TIME STEP      L**3/T
     ------------------                 ------------------------

           IN:                                      IN:
           ---                                      ---
             STORAGE     =   877525824.0000               STORAGE     =           2.7060
       CONSTANT HEAD     =           0.0000         CONSTANT HEAD     =           0.0000
     HEAD DEP BOUNDS     =    36138064.0000       HEAD DEP BOUNDS     =           0.2869
      STREAM LEAKAGE     =  1513556992.0000        STREAM LEAKAGE     =          11.4043
        UZF RECHARGE     =       73223.9531          UZF RECHARGE     =           0.0000
               GW ET     =           0.0000                 GW ET     =           0.0000
     SURFACE LEAKAGE     =           0.0000       SURFACE LEAKAGE     =           0.0000
           AG WELLS      =           0.0000             AG WELLS      =           0.0000

                TOTAL IN =  2427294208.0000                  TOTAL IN =          14.3972

          OUT:                                     OUT:
          ----                                     ----
             STORAGE     =   516905056.0000               STORAGE     =           3.6614
       CONSTANT HEAD     =           0.0000         CONSTANT HEAD     =           0.0000
     HEAD DEP BOUNDS     =    36700780.0000       HEAD DEP BOUNDS     =           0.2886
      STREAM LEAKAGE     =  1349363968.0000        STREAM LEAKAGE     =          10.4476
        UZF RECHARGE     =           0.0000          UZF RECHARGE     =           0.0000
               GW ET     =     3343843.5000                 GW ET     =           0.0000
     SURFACE LEAKAGE     =           0.0000       SURFACE LEAKAGE     =           0.0000
           AG WELLS      =   520990304.0000             AG WELLS      =           0.0000

               TOTAL OUT =  2427303936.0000                 TOTAL OUT =          14.3975

                IN - OUT =       -9728.0000                  IN - OUT =      -2.6989E-04

     PERCENT DISCREPANCY =          -0.00         PERCENT DISCREPANCY =          -0.00






         TIME SUMMARY AT END OF TIME STEP   30 IN STRESS PERIOD   49
                    SECONDS     MINUTES      HOURS       DAYS        YEARS
                    -----------------------------------------------------------
   TIME STEP LENGTH  87667.      1461.1      24.352      1.0147     2.77799E-03
 STRESS PERIOD TIME 2.63000E+06  43833.      730.56      30.440     8.33397E-02
         TOTAL TIME 1.26325E+08 2.10542E+06  35090.      1462.1      4.0030    
1


 Run end date and time (yyyy/mm/dd hh:mm:ss): 2021/11/02 16:46:13
 Elapsed run time: 3.864 Seconds

