                                  MODFLOW-NWT-SWR1 
      U.S. GEOLOGICAL SURVEY MODULAR FINITE-DIFFERENCE GROUNDWATER-FLOW MODEL
                            VERSION 1.3.0 06/01/2022
                    BASED ON MODFLOW-2005 VERSION 1.12.00 02/03/2017

 LIST FILE: .\output\Pr2MFNWT.LST
                         UNIT    1

 OPENING .\input\Pr2.BA6
 FILE TYPE:BAS6   UNIT    2   STATUS:OLD    
 FORMAT:FORMATTED              ACCESS:SEQUENTIAL          

 OPENING .\input\Pr2.DIS
 FILE TYPE:DIS   UNIT   10   STATUS:OLD    
 FORMAT:FORMATTED              ACCESS:SEQUENTIAL          

 OPENING .\input\Pr2.RCH
 FILE TYPE:RCH   UNIT   18   STATUS:OLD    
 FORMAT:FORMATTED              ACCESS:SEQUENTIAL          

 OPENING .\input\Pr2.OC
 FILE TYPE:OC   UNIT   20   STATUS:OLD    
 FORMAT:FORMATTED              ACCESS:SEQUENTIAL          

 OPENING .\output\Pr2MFNWT.BUD
 FILE TYPE:DATA(BINARY)   UNIT   32   STATUS:UNKNOWN
 FORMAT:UNFORMATTED            ACCESS:STREAM              

 OPENING .\input\Pr2.NWT
 FILE TYPE:NWT   UNIT   34   STATUS:OLD    
 FORMAT:FORMATTED              ACCESS:SEQUENTIAL          

 OPENING .\input\Pr2.UPW
 FILE TYPE:UPW   UNIT   35   STATUS:OLD    
 FORMAT:FORMATTED              ACCESS:SEQUENTIAL          

 OPENING .\output\Pr2.out
 FILE TYPE:DATA   UNIT   51   STATUS:UNKNOWN
 FORMAT:FORMATTED              ACCESS:SEQUENTIAL          

 BAS -- BASIC PACKAGE, VERSION 1.1.4, 4/01/2018 INPUT READ FROM UNIT    2
 
 MODFLOW was compiled using mixed precision
 Precision of REAL variables:           6
 Precision of DOUBLE PRECISION variables:          15

 DISCRETIZATION INPUT DATA READ FROM UNIT   10
   14 LAYERS        40 ROWS        40 COLUMNS
    3 STRESS PERIOD(S) IN SIMULATION
 MODEL TIME UNIT IS DAYS
 MODEL LENGTH UNIT IS UNDEFINED
  Confining bed flag for each layer:
   0   0   0   0   0   0   0   0   0   0   0   0   0   0

                     DELR =   125.000    

                     DELC =   125.000    

 TOP ELEVATION OF LAYER 1 =   80.0000    

   MODEL LAYER BOTTOM EL. =   65.0000     FOR LAYER   1

   MODEL LAYER BOTTOM EL. =   60.0000     FOR LAYER   2

   MODEL LAYER BOTTOM EL. =   55.0000     FOR LAYER   3

   MODEL LAYER BOTTOM EL. =   50.0000     FOR LAYER   4

   MODEL LAYER BOTTOM EL. =   45.0000     FOR LAYER   5

   MODEL LAYER BOTTOM EL. =   40.0000     FOR LAYER   6

   MODEL LAYER BOTTOM EL. =   35.0000     FOR LAYER   7

   MODEL LAYER BOTTOM EL. =   30.0000     FOR LAYER   8

   MODEL LAYER BOTTOM EL. =   25.0000     FOR LAYER   9

   MODEL LAYER BOTTOM EL. =   20.0000     FOR LAYER  10

   MODEL LAYER BOTTOM EL. =   15.0000     FOR LAYER  11

   MODEL LAYER BOTTOM EL. =   10.0000     FOR LAYER  12

   MODEL LAYER BOTTOM EL. =   5.00000     FOR LAYER  13

   MODEL LAYER BOTTOM EL. =   0.00000     FOR LAYER  14


 STRESS PERIOD     LENGTH       TIME STEPS     MULTIPLIER FOR DELT    SS FLAG
 ----------------------------------------------------------------------------
        1         190.0000         10                    1.000         TR
        2         518.0000          2                    1.000         TR
        3         1922.000         17                    1.000         TR

 TRANSIENT SIMULATION



 
 #BCF2 sample problem 2                                                          
 #Mounding under a recharge pond                                                 
 THE FREE FORMAT OPTION HAS BEEN SELECTED

           BOUNDARY ARRAY =              1 FOR LAYER   1

           BOUNDARY ARRAY =              1 FOR LAYER   2

           BOUNDARY ARRAY =              1 FOR LAYER   3

           BOUNDARY ARRAY =              1 FOR LAYER   4

           BOUNDARY ARRAY =              1 FOR LAYER   5

           BOUNDARY ARRAY =              1 FOR LAYER   6

           BOUNDARY ARRAY =              1 FOR LAYER   7

           BOUNDARY ARRAY =              1 FOR LAYER   8

           BOUNDARY ARRAY =              1 FOR LAYER   9



                     BOUNDARY ARRAY FOR LAYER  10
 READING ON UNIT    2 WITH FORMAT: (20I4)              

       1  2  3  4  5  6  7  8  9 10 11 12 13 14 15 16 17 18 19 20 21 22 23 24 25 26 27 28 29 30 31 32 33 34 35 36 37 38 39 40
 ............................................................................................................................
   1   1  1  1  1  1  1  1  1  1  1  1  1  1  1  1  1  1  1  1  1  1  1  1  1  1  1  1  1  1  1  1  1  1  1  1  1  1  1  1 -1
   2   1  1  1  1  1  1  1  1  1  1  1  1  1  1  1  1  1  1  1  1  1  1  1  1  1  1  1  1  1  1  1  1  1  1  1  1  1  1  1 -1
   3   1  1  1  1  1  1  1  1  1  1  1  1  1  1  1  1  1  1  1  1  1  1  1  1  1  1  1  1  1  1  1  1  1  1  1  1  1  1  1 -1
   4   1  1  1  1  1  1  1  1  1  1  1  1  1  1  1  1  1  1  1  1  1  1  1  1  1  1  1  1  1  1  1  1  1  1  1  1  1  1  1 -1
   5   1  1  1  1  1  1  1  1  1  1  1  1  1  1  1  1  1  1  1  1  1  1  1  1  1  1  1  1  1  1  1  1  1  1  1  1  1  1  1 -1
   6   1  1  1  1  1  1  1  1  1  1  1  1  1  1  1  1  1  1  1  1  1  1  1  1  1  1  1  1  1  1  1  1  1  1  1  1  1  1  1 -1
   7   1  1  1  1  1  1  1  1  1  1  1  1  1  1  1  1  1  1  1  1  1  1  1  1  1  1  1  1  1  1  1  1  1  1  1  1  1  1  1 -1
   8   1  1  1  1  1  1  1  1  1  1  1  1  1  1  1  1  1  1  1  1  1  1  1  1  1  1  1  1  1  1  1  1  1  1  1  1  1  1  1 -1
   9   1  1  1  1  1  1  1  1  1  1  1  1  1  1  1  1  1  1  1  1  1  1  1  1  1  1  1  1  1  1  1  1  1  1  1  1  1  1  1 -1
  10   1  1  1  1  1  1  1  1  1  1  1  1  1  1  1  1  1  1  1  1  1  1  1  1  1  1  1  1  1  1  1  1  1  1  1  1  1  1  1 -1
  11   1  1  1  1  1  1  1  1  1  1  1  1  1  1  1  1  1  1  1  1  1  1  1  1  1  1  1  1  1  1  1  1  1  1  1  1  1  1  1 -1
  12   1  1  1  1  1  1  1  1  1  1  1  1  1  1  1  1  1  1  1  1  1  1  1  1  1  1  1  1  1  1  1  1  1  1  1  1  1  1  1 -1
  13   1  1  1  1  1  1  1  1  1  1  1  1  1  1  1  1  1  1  1  1  1  1  1  1  1  1  1  1  1  1  1  1  1  1  1  1  1  1  1 -1
  14   1  1  1  1  1  1  1  1  1  1  1  1  1  1  1  1  1  1  1  1  1  1  1  1  1  1  1  1  1  1  1  1  1  1  1  1  1  1  1 -1
  15   1  1  1  1  1  1  1  1  1  1  1  1  1  1  1  1  1  1  1  1  1  1  1  1  1  1  1  1  1  1  1  1  1  1  1  1  1  1  1 -1
  16   1  1  1  1  1  1  1  1  1  1  1  1  1  1  1  1  1  1  1  1  1  1  1  1  1  1  1  1  1  1  1  1  1  1  1  1  1  1  1 -1
  17   1  1  1  1  1  1  1  1  1  1  1  1  1  1  1  1  1  1  1  1  1  1  1  1  1  1  1  1  1  1  1  1  1  1  1  1  1  1  1 -1
  18   1  1  1  1  1  1  1  1  1  1  1  1  1  1  1  1  1  1  1  1  1  1  1  1  1  1  1  1  1  1  1  1  1  1  1  1  1  1  1 -1
  19   1  1  1  1  1  1  1  1  1  1  1  1  1  1  1  1  1  1  1  1  1  1  1  1  1  1  1  1  1  1  1  1  1  1  1  1  1  1  1 -1
  20   1  1  1  1  1  1  1  1  1  1  1  1  1  1  1  1  1  1  1  1  1  1  1  1  1  1  1  1  1  1  1  1  1  1  1  1  1  1  1 -1
  21   1  1  1  1  1  1  1  1  1  1  1  1  1  1  1  1  1  1  1  1  1  1  1  1  1  1  1  1  1  1  1  1  1  1  1  1  1  1  1 -1
  22   1  1  1  1  1  1  1  1  1  1  1  1  1  1  1  1  1  1  1  1  1  1  1  1  1  1  1  1  1  1  1  1  1  1  1  1  1  1  1 -1
  23   1  1  1  1  1  1  1  1  1  1  1  1  1  1  1  1  1  1  1  1  1  1  1  1  1  1  1  1  1  1  1  1  1  1  1  1  1  1  1 -1
  24   1  1  1  1  1  1  1  1  1  1  1  1  1  1  1  1  1  1  1  1  1  1  1  1  1  1  1  1  1  1  1  1  1  1  1  1  1  1  1 -1
  25   1  1  1  1  1  1  1  1  1  1  1  1  1  1  1  1  1  1  1  1  1  1  1  1  1  1  1  1  1  1  1  1  1  1  1  1  1  1  1 -1
  26   1  1  1  1  1  1  1  1  1  1  1  1  1  1  1  1  1  1  1  1  1  1  1  1  1  1  1  1  1  1  1  1  1  1  1  1  1  1  1 -1
  27   1  1  1  1  1  1  1  1  1  1  1  1  1  1  1  1  1  1  1  1  1  1  1  1  1  1  1  1  1  1  1  1  1  1  1  1  1  1  1 -1
  28   1  1  1  1  1  1  1  1  1  1  1  1  1  1  1  1  1  1  1  1  1  1  1  1  1  1  1  1  1  1  1  1  1  1  1  1  1  1  1 -1
  29   1  1  1  1  1  1  1  1  1  1  1  1  1  1  1  1  1  1  1  1  1  1  1  1  1  1  1  1  1  1  1  1  1  1  1  1  1  1  1 -1
  30   1  1  1  1  1  1  1  1  1  1  1  1  1  1  1  1  1  1  1  1  1  1  1  1  1  1  1  1  1  1  1  1  1  1  1  1  1  1  1 -1
  31   1  1  1  1  1  1  1  1  1  1  1  1  1  1  1  1  1  1  1  1  1  1  1  1  1  1  1  1  1  1  1  1  1  1  1  1  1  1  1 -1
  32   1  1  1  1  1  1  1  1  1  1  1  1  1  1  1  1  1  1  1  1  1  1  1  1  1  1  1  1  1  1  1  1  1  1  1  1  1  1  1 -1
  33   1  1  1  1  1  1  1  1  1  1  1  1  1  1  1  1  1  1  1  1  1  1  1  1  1  1  1  1  1  1  1  1  1  1  1  1  1  1  1 -1
  34   1  1  1  1  1  1  1  1  1  1  1  1  1  1  1  1  1  1  1  1  1  1  1  1  1  1  1  1  1  1  1  1  1  1  1  1  1  1  1 -1
  35   1  1  1  1  1  1  1  1  1  1  1  1  1  1  1  1  1  1  1  1  1  1  1  1  1  1  1  1  1  1  1  1  1  1  1  1  1  1  1 -1
  36   1  1  1  1  1  1  1  1  1  1  1  1  1  1  1  1  1  1  1  1  1  1  1  1  1  1  1  1  1  1  1  1  1  1  1  1  1  1  1 -1
  37   1  1  1  1  1  1  1  1  1  1  1  1  1  1  1  1  1  1  1  1  1  1  1  1  1  1  1  1  1  1  1  1  1  1  1  1  1  1  1 -1
  38   1  1  1  1  1  1  1  1  1  1  1  1  1  1  1  1  1  1  1  1  1  1  1  1  1  1  1  1  1  1  1  1  1  1  1  1  1  1  1 -1
  39   1  1  1  1  1  1  1  1  1  1  1  1  1  1  1  1  1  1  1  1  1  1  1  1  1  1  1  1  1  1  1  1  1  1  1  1  1  1  1 -1
  40  -1 -1 -1 -1 -1 -1 -1 -1 -1 -1 -1 -1 -1 -1 -1 -1 -1 -1 -1 -1 -1 -1 -1 -1 -1 -1 -1 -1 -1 -1 -1 -1 -1 -1 -1 -1 -1 -1 -1 -1



                     BOUNDARY ARRAY FOR LAYER  11
 READING ON UNIT    2 WITH FORMAT: (20I4)              

       1  2  3  4  5  6  7  8  9 10 11 12 13 14 15 16 17 18 19 20 21 22 23 24 25 26 27 28 29 30 31 32 33 34 35 36 37 38 39 40
 ............................................................................................................................
   1   1  1  1  1  1  1  1  1  1  1  1  1  1  1  1  1  1  1  1  1  1  1  1  1  1  1  1  1  1  1  1  1  1  1  1  1  1  1  1 -1
   2   1  1  1  1  1  1  1  1  1  1  1  1  1  1  1  1  1  1  1  1  1  1  1  1  1  1  1  1  1  1  1  1  1  1  1  1  1  1  1 -1
   3   1  1  1  1  1  1  1  1  1  1  1  1  1  1  1  1  1  1  1  1  1  1  1  1  1  1  1  1  1  1  1  1  1  1  1  1  1  1  1 -1
   4   1  1  1  1  1  1  1  1  1  1  1  1  1  1  1  1  1  1  1  1  1  1  1  1  1  1  1  1  1  1  1  1  1  1  1  1  1  1  1 -1
   5   1  1  1  1  1  1  1  1  1  1  1  1  1  1  1  1  1  1  1  1  1  1  1  1  1  1  1  1  1  1  1  1  1  1  1  1  1  1  1 -1
   6   1  1  1  1  1  1  1  1  1  1  1  1  1  1  1  1  1  1  1  1  1  1  1  1  1  1  1  1  1  1  1  1  1  1  1  1  1  1  1 -1
   7   1  1  1  1  1  1  1  1  1  1  1  1  1  1  1  1  1  1  1  1  1  1  1  1  1  1  1  1  1  1  1  1  1  1  1  1  1  1  1 -1
   8   1  1  1  1  1  1  1  1  1  1  1  1  1  1  1  1  1  1  1  1  1  1  1  1  1  1  1  1  1  1  1  1  1  1  1  1  1  1  1 -1
   9   1  1  1  1  1  1  1  1  1  1  1  1  1  1  1  1  1  1  1  1  1  1  1  1  1  1  1  1  1  1  1  1  1  1  1  1  1  1  1 -1
  10   1  1  1  1  1  1  1  1  1  1  1  1  1  1  1  1  1  1  1  1  1  1  1  1  1  1  1  1  1  1  1  1  1  1  1  1  1  1  1 -1
  11   1  1  1  1  1  1  1  1  1  1  1  1  1  1  1  1  1  1  1  1  1  1  1  1  1  1  1  1  1  1  1  1  1  1  1  1  1  1  1 -1
  12   1  1  1  1  1  1  1  1  1  1  1  1  1  1  1  1  1  1  1  1  1  1  1  1  1  1  1  1  1  1  1  1  1  1  1  1  1  1  1 -1
  13   1  1  1  1  1  1  1  1  1  1  1  1  1  1  1  1  1  1  1  1  1  1  1  1  1  1  1  1  1  1  1  1  1  1  1  1  1  1  1 -1
  14   1  1  1  1  1  1  1  1  1  1  1  1  1  1  1  1  1  1  1  1  1  1  1  1  1  1  1  1  1  1  1  1  1  1  1  1  1  1  1 -1
  15   1  1  1  1  1  1  1  1  1  1  1  1  1  1  1  1  1  1  1  1  1  1  1  1  1  1  1  1  1  1  1  1  1  1  1  1  1  1  1 -1
  16   1  1  1  1  1  1  1  1  1  1  1  1  1  1  1  1  1  1  1  1  1  1  1  1  1  1  1  1  1  1  1  1  1  1  1  1  1  1  1 -1
  17   1  1  1  1  1  1  1  1  1  1  1  1  1  1  1  1  1  1  1  1  1  1  1  1  1  1  1  1  1  1  1  1  1  1  1  1  1  1  1 -1
  18   1  1  1  1  1  1  1  1  1  1  1  1  1  1  1  1  1  1  1  1  1  1  1  1  1  1  1  1  1  1  1  1  1  1  1  1  1  1  1 -1
  19   1  1  1  1  1  1  1  1  1  1  1  1  1  1  1  1  1  1  1  1  1  1  1  1  1  1  1  1  1  1  1  1  1  1  1  1  1  1  1 -1
  20   1  1  1  1  1  1  1  1  1  1  1  1  1  1  1  1  1  1  1  1  1  1  1  1  1  1  1  1  1  1  1  1  1  1  1  1  1  1  1 -1
  21   1  1  1  1  1  1  1  1  1  1  1  1  1  1  1  1  1  1  1  1  1  1  1  1  1  1  1  1  1  1  1  1  1  1  1  1  1  1  1 -1
  22   1  1  1  1  1  1  1  1  1  1  1  1  1  1  1  1  1  1  1  1  1  1  1  1  1  1  1  1  1  1  1  1  1  1  1  1  1  1  1 -1
  23   1  1  1  1  1  1  1  1  1  1  1  1  1  1  1  1  1  1  1  1  1  1  1  1  1  1  1  1  1  1  1  1  1  1  1  1  1  1  1 -1
  24   1  1  1  1  1  1  1  1  1  1  1  1  1  1  1  1  1  1  1  1  1  1  1  1  1  1  1  1  1  1  1  1  1  1  1  1  1  1  1 -1
  25   1  1  1  1  1  1  1  1  1  1  1  1  1  1  1  1  1  1  1  1  1  1  1  1  1  1  1  1  1  1  1  1  1  1  1  1  1  1  1 -1
  26   1  1  1  1  1  1  1  1  1  1  1  1  1  1  1  1  1  1  1  1  1  1  1  1  1  1  1  1  1  1  1  1  1  1  1  1  1  1  1 -1
  27   1  1  1  1  1  1  1  1  1  1  1  1  1  1  1  1  1  1  1  1  1  1  1  1  1  1  1  1  1  1  1  1  1  1  1  1  1  1  1 -1
  28   1  1  1  1  1  1  1  1  1  1  1  1  1  1  1  1  1  1  1  1  1  1  1  1  1  1  1  1  1  1  1  1  1  1  1  1  1  1  1 -1
  29   1  1  1  1  1  1  1  1  1  1  1  1  1  1  1  1  1  1  1  1  1  1  1  1  1  1  1  1  1  1  1  1  1  1  1  1  1  1  1 -1
  30   1  1  1  1  1  1  1  1  1  1  1  1  1  1  1  1  1  1  1  1  1  1  1  1  1  1  1  1  1  1  1  1  1  1  1  1  1  1  1 -1
  31   1  1  1  1  1  1  1  1  1  1  1  1  1  1  1  1  1  1  1  1  1  1  1  1  1  1  1  1  1  1  1  1  1  1  1  1  1  1  1 -1
  32   1  1  1  1  1  1  1  1  1  1  1  1  1  1  1  1  1  1  1  1  1  1  1  1  1  1  1  1  1  1  1  1  1  1  1  1  1  1  1 -1
  33   1  1  1  1  1  1  1  1  1  1  1  1  1  1  1  1  1  1  1  1  1  1  1  1  1  1  1  1  1  1  1  1  1  1  1  1  1  1  1 -1
  34   1  1  1  1  1  1  1  1  1  1  1  1  1  1  1  1  1  1  1  1  1  1  1  1  1  1  1  1  1  1  1  1  1  1  1  1  1  1  1 -1
  35   1  1  1  1  1  1  1  1  1  1  1  1  1  1  1  1  1  1  1  1  1  1  1  1  1  1  1  1  1  1  1  1  1  1  1  1  1  1  1 -1
  36   1  1  1  1  1  1  1  1  1  1  1  1  1  1  1  1  1  1  1  1  1  1  1  1  1  1  1  1  1  1  1  1  1  1  1  1  1  1  1 -1
  37   1  1  1  1  1  1  1  1  1  1  1  1  1  1  1  1  1  1  1  1  1  1  1  1  1  1  1  1  1  1  1  1  1  1  1  1  1  1  1 -1
  38   1  1  1  1  1  1  1  1  1  1  1  1  1  1  1  1  1  1  1  1  1  1  1  1  1  1  1  1  1  1  1  1  1  1  1  1  1  1  1 -1
  39   1  1  1  1  1  1  1  1  1  1  1  1  1  1  1  1  1  1  1  1  1  1  1  1  1  1  1  1  1  1  1  1  1  1  1  1  1  1  1 -1
  40  -1 -1 -1 -1 -1 -1 -1 -1 -1 -1 -1 -1 -1 -1 -1 -1 -1 -1 -1 -1 -1 -1 -1 -1 -1 -1 -1 -1 -1 -1 -1 -1 -1 -1 -1 -1 -1 -1 -1 -1



                     BOUNDARY ARRAY FOR LAYER  12
 READING ON UNIT    2 WITH FORMAT: (20I4)              

       1  2  3  4  5  6  7  8  9 10 11 12 13 14 15 16 17 18 19 20 21 22 23 24 25 26 27 28 29 30 31 32 33 34 35 36 37 38 39 40
 ............................................................................................................................
   1   1  1  1  1  1  1  1  1  1  1  1  1  1  1  1  1  1  1  1  1  1  1  1  1  1  1  1  1  1  1  1  1  1  1  1  1  1  1  1 -1
   2   1  1  1  1  1  1  1  1  1  1  1  1  1  1  1  1  1  1  1  1  1  1  1  1  1  1  1  1  1  1  1  1  1  1  1  1  1  1  1 -1
   3   1  1  1  1  1  1  1  1  1  1  1  1  1  1  1  1  1  1  1  1  1  1  1  1  1  1  1  1  1  1  1  1  1  1  1  1  1  1  1 -1
   4   1  1  1  1  1  1  1  1  1  1  1  1  1  1  1  1  1  1  1  1  1  1  1  1  1  1  1  1  1  1  1  1  1  1  1  1  1  1  1 -1
   5   1  1  1  1  1  1  1  1  1  1  1  1  1  1  1  1  1  1  1  1  1  1  1  1  1  1  1  1  1  1  1  1  1  1  1  1  1  1  1 -1
   6   1  1  1  1  1  1  1  1  1  1  1  1  1  1  1  1  1  1  1  1  1  1  1  1  1  1  1  1  1  1  1  1  1  1  1  1  1  1  1 -1
   7   1  1  1  1  1  1  1  1  1  1  1  1  1  1  1  1  1  1  1  1  1  1  1  1  1  1  1  1  1  1  1  1  1  1  1  1  1  1  1 -1
   8   1  1  1  1  1  1  1  1  1  1  1  1  1  1  1  1  1  1  1  1  1  1  1  1  1  1  1  1  1  1  1  1  1  1  1  1  1  1  1 -1
   9   1  1  1  1  1  1  1  1  1  1  1  1  1  1  1  1  1  1  1  1  1  1  1  1  1  1  1  1  1  1  1  1  1  1  1  1  1  1  1 -1
  10   1  1  1  1  1  1  1  1  1  1  1  1  1  1  1  1  1  1  1  1  1  1  1  1  1  1  1  1  1  1  1  1  1  1  1  1  1  1  1 -1
  11   1  1  1  1  1  1  1  1  1  1  1  1  1  1  1  1  1  1  1  1  1  1  1  1  1  1  1  1  1  1  1  1  1  1  1  1  1  1  1 -1
  12   1  1  1  1  1  1  1  1  1  1  1  1  1  1  1  1  1  1  1  1  1  1  1  1  1  1  1  1  1  1  1  1  1  1  1  1  1  1  1 -1
  13   1  1  1  1  1  1  1  1  1  1  1  1  1  1  1  1  1  1  1  1  1  1  1  1  1  1  1  1  1  1  1  1  1  1  1  1  1  1  1 -1
  14   1  1  1  1  1  1  1  1  1  1  1  1  1  1  1  1  1  1  1  1  1  1  1  1  1  1  1  1  1  1  1  1  1  1  1  1  1  1  1 -1
  15   1  1  1  1  1  1  1  1  1  1  1  1  1  1  1  1  1  1  1  1  1  1  1  1  1  1  1  1  1  1  1  1  1  1  1  1  1  1  1 -1
  16   1  1  1  1  1  1  1  1  1  1  1  1  1  1  1  1  1  1  1  1  1  1  1  1  1  1  1  1  1  1  1  1  1  1  1  1  1  1  1 -1
  17   1  1  1  1  1  1  1  1  1  1  1  1  1  1  1  1  1  1  1  1  1  1  1  1  1  1  1  1  1  1  1  1  1  1  1  1  1  1  1 -1
  18   1  1  1  1  1  1  1  1  1  1  1  1  1  1  1  1  1  1  1  1  1  1  1  1  1  1  1  1  1  1  1  1  1  1  1  1  1  1  1 -1
  19   1  1  1  1  1  1  1  1  1  1  1  1  1  1  1  1  1  1  1  1  1  1  1  1  1  1  1  1  1  1  1  1  1  1  1  1  1  1  1 -1
  20   1  1  1  1  1  1  1  1  1  1  1  1  1  1  1  1  1  1  1  1  1  1  1  1  1  1  1  1  1  1  1  1  1  1  1  1  1  1  1 -1
  21   1  1  1  1  1  1  1  1  1  1  1  1  1  1  1  1  1  1  1  1  1  1  1  1  1  1  1  1  1  1  1  1  1  1  1  1  1  1  1 -1
  22   1  1  1  1  1  1  1  1  1  1  1  1  1  1  1  1  1  1  1  1  1  1  1  1  1  1  1  1  1  1  1  1  1  1  1  1  1  1  1 -1
  23   1  1  1  1  1  1  1  1  1  1  1  1  1  1  1  1  1  1  1  1  1  1  1  1  1  1  1  1  1  1  1  1  1  1  1  1  1  1  1 -1
  24   1  1  1  1  1  1  1  1  1  1  1  1  1  1  1  1  1  1  1  1  1  1  1  1  1  1  1  1  1  1  1  1  1  1  1  1  1  1  1 -1
  25   1  1  1  1  1  1  1  1  1  1  1  1  1  1  1  1  1  1  1  1  1  1  1  1  1  1  1  1  1  1  1  1  1  1  1  1  1  1  1 -1
  26   1  1  1  1  1  1  1  1  1  1  1  1  1  1  1  1  1  1  1  1  1  1  1  1  1  1  1  1  1  1  1  1  1  1  1  1  1  1  1 -1
  27   1  1  1  1  1  1  1  1  1  1  1  1  1  1  1  1  1  1  1  1  1  1  1  1  1  1  1  1  1  1  1  1  1  1  1  1  1  1  1 -1
  28   1  1  1  1  1  1  1  1  1  1  1  1  1  1  1  1  1  1  1  1  1  1  1  1  1  1  1  1  1  1  1  1  1  1  1  1  1  1  1 -1
  29   1  1  1  1  1  1  1  1  1  1  1  1  1  1  1  1  1  1  1  1  1  1  1  1  1  1  1  1  1  1  1  1  1  1  1  1  1  1  1 -1
  30   1  1  1  1  1  1  1  1  1  1  1  1  1  1  1  1  1  1  1  1  1  1  1  1  1  1  1  1  1  1  1  1  1  1  1  1  1  1  1 -1
  31   1  1  1  1  1  1  1  1  1  1  1  1  1  1  1  1  1  1  1  1  1  1  1  1  1  1  1  1  1  1  1  1  1  1  1  1  1  1  1 -1
  32   1  1  1  1  1  1  1  1  1  1  1  1  1  1  1  1  1  1  1  1  1  1  1  1  1  1  1  1  1  1  1  1  1  1  1  1  1  1  1 -1
  33   1  1  1  1  1  1  1  1  1  1  1  1  1  1  1  1  1  1  1  1  1  1  1  1  1  1  1  1  1  1  1  1  1  1  1  1  1  1  1 -1
  34   1  1  1  1  1  1  1  1  1  1  1  1  1  1  1  1  1  1  1  1  1  1  1  1  1  1  1  1  1  1  1  1  1  1  1  1  1  1  1 -1
  35   1  1  1  1  1  1  1  1  1  1  1  1  1  1  1  1  1  1  1  1  1  1  1  1  1  1  1  1  1  1  1  1  1  1  1  1  1  1  1 -1
  36   1  1  1  1  1  1  1  1  1  1  1  1  1  1  1  1  1  1  1  1  1  1  1  1  1  1  1  1  1  1  1  1  1  1  1  1  1  1  1 -1
  37   1  1  1  1  1  1  1  1  1  1  1  1  1  1  1  1  1  1  1  1  1  1  1  1  1  1  1  1  1  1  1  1  1  1  1  1  1  1  1 -1
  38   1  1  1  1  1  1  1  1  1  1  1  1  1  1  1  1  1  1  1  1  1  1  1  1  1  1  1  1  1  1  1  1  1  1  1  1  1  1  1 -1
  39   1  1  1  1  1  1  1  1  1  1  1  1  1  1  1  1  1  1  1  1  1  1  1  1  1  1  1  1  1  1  1  1  1  1  1  1  1  1  1 -1
  40  -1 -1 -1 -1 -1 -1 -1 -1 -1 -1 -1 -1 -1 -1 -1 -1 -1 -1 -1 -1 -1 -1 -1 -1 -1 -1 -1 -1 -1 -1 -1 -1 -1 -1 -1 -1 -1 -1 -1 -1



                     BOUNDARY ARRAY FOR LAYER  13
 READING ON UNIT    2 WITH FORMAT: (20I4)              

       1  2  3  4  5  6  7  8  9 10 11 12 13 14 15 16 17 18 19 20 21 22 23 24 25 26 27 28 29 30 31 32 33 34 35 36 37 38 39 40
 ............................................................................................................................
   1   1  1  1  1  1  1  1  1  1  1  1  1  1  1  1  1  1  1  1  1  1  1  1  1  1  1  1  1  1  1  1  1  1  1  1  1  1  1  1 -1
   2   1  1  1  1  1  1  1  1  1  1  1  1  1  1  1  1  1  1  1  1  1  1  1  1  1  1  1  1  1  1  1  1  1  1  1  1  1  1  1 -1
   3   1  1  1  1  1  1  1  1  1  1  1  1  1  1  1  1  1  1  1  1  1  1  1  1  1  1  1  1  1  1  1  1  1  1  1  1  1  1  1 -1
   4   1  1  1  1  1  1  1  1  1  1  1  1  1  1  1  1  1  1  1  1  1  1  1  1  1  1  1  1  1  1  1  1  1  1  1  1  1  1  1 -1
   5   1  1  1  1  1  1  1  1  1  1  1  1  1  1  1  1  1  1  1  1  1  1  1  1  1  1  1  1  1  1  1  1  1  1  1  1  1  1  1 -1
   6   1  1  1  1  1  1  1  1  1  1  1  1  1  1  1  1  1  1  1  1  1  1  1  1  1  1  1  1  1  1  1  1  1  1  1  1  1  1  1 -1
   7   1  1  1  1  1  1  1  1  1  1  1  1  1  1  1  1  1  1  1  1  1  1  1  1  1  1  1  1  1  1  1  1  1  1  1  1  1  1  1 -1
   8   1  1  1  1  1  1  1  1  1  1  1  1  1  1  1  1  1  1  1  1  1  1  1  1  1  1  1  1  1  1  1  1  1  1  1  1  1  1  1 -1
   9   1  1  1  1  1  1  1  1  1  1  1  1  1  1  1  1  1  1  1  1  1  1  1  1  1  1  1  1  1  1  1  1  1  1  1  1  1  1  1 -1
  10   1  1  1  1  1  1  1  1  1  1  1  1  1  1  1  1  1  1  1  1  1  1  1  1  1  1  1  1  1  1  1  1  1  1  1  1  1  1  1 -1
  11   1  1  1  1  1  1  1  1  1  1  1  1  1  1  1  1  1  1  1  1  1  1  1  1  1  1  1  1  1  1  1  1  1  1  1  1  1  1  1 -1
  12   1  1  1  1  1  1  1  1  1  1  1  1  1  1  1  1  1  1  1  1  1  1  1  1  1  1  1  1  1  1  1  1  1  1  1  1  1  1  1 -1
  13   1  1  1  1  1  1  1  1  1  1  1  1  1  1  1  1  1  1  1  1  1  1  1  1  1  1  1  1  1  1  1  1  1  1  1  1  1  1  1 -1
  14   1  1  1  1  1  1  1  1  1  1  1  1  1  1  1  1  1  1  1  1  1  1  1  1  1  1  1  1  1  1  1  1  1  1  1  1  1  1  1 -1
  15   1  1  1  1  1  1  1  1  1  1  1  1  1  1  1  1  1  1  1  1  1  1  1  1  1  1  1  1  1  1  1  1  1  1  1  1  1  1  1 -1
  16   1  1  1  1  1  1  1  1  1  1  1  1  1  1  1  1  1  1  1  1  1  1  1  1  1  1  1  1  1  1  1  1  1  1  1  1  1  1  1 -1
  17   1  1  1  1  1  1  1  1  1  1  1  1  1  1  1  1  1  1  1  1  1  1  1  1  1  1  1  1  1  1  1  1  1  1  1  1  1  1  1 -1
  18   1  1  1  1  1  1  1  1  1  1  1  1  1  1  1  1  1  1  1  1  1  1  1  1  1  1  1  1  1  1  1  1  1  1  1  1  1  1  1 -1
  19   1  1  1  1  1  1  1  1  1  1  1  1  1  1  1  1  1  1  1  1  1  1  1  1  1  1  1  1  1  1  1  1  1  1  1  1  1  1  1 -1
  20   1  1  1  1  1  1  1  1  1  1  1  1  1  1  1  1  1  1  1  1  1  1  1  1  1  1  1  1  1  1  1  1  1  1  1  1  1  1  1 -1
  21   1  1  1  1  1  1  1  1  1  1  1  1  1  1  1  1  1  1  1  1  1  1  1  1  1  1  1  1  1  1  1  1  1  1  1  1  1  1  1 -1
  22   1  1  1  1  1  1  1  1  1  1  1  1  1  1  1  1  1  1  1  1  1  1  1  1  1  1  1  1  1  1  1  1  1  1  1  1  1  1  1 -1
  23   1  1  1  1  1  1  1  1  1  1  1  1  1  1  1  1  1  1  1  1  1  1  1  1  1  1  1  1  1  1  1  1  1  1  1  1  1  1  1 -1
  24   1  1  1  1  1  1  1  1  1  1  1  1  1  1  1  1  1  1  1  1  1  1  1  1  1  1  1  1  1  1  1  1  1  1  1  1  1  1  1 -1
  25   1  1  1  1  1  1  1  1  1  1  1  1  1  1  1  1  1  1  1  1  1  1  1  1  1  1  1  1  1  1  1  1  1  1  1  1  1  1  1 -1
  26   1  1  1  1  1  1  1  1  1  1  1  1  1  1  1  1  1  1  1  1  1  1  1  1  1  1  1  1  1  1  1  1  1  1  1  1  1  1  1 -1
  27   1  1  1  1  1  1  1  1  1  1  1  1  1  1  1  1  1  1  1  1  1  1  1  1  1  1  1  1  1  1  1  1  1  1  1  1  1  1  1 -1
  28   1  1  1  1  1  1  1  1  1  1  1  1  1  1  1  1  1  1  1  1  1  1  1  1  1  1  1  1  1  1  1  1  1  1  1  1  1  1  1 -1
  29   1  1  1  1  1  1  1  1  1  1  1  1  1  1  1  1  1  1  1  1  1  1  1  1  1  1  1  1  1  1  1  1  1  1  1  1  1  1  1 -1
  30   1  1  1  1  1  1  1  1  1  1  1  1  1  1  1  1  1  1  1  1  1  1  1  1  1  1  1  1  1  1  1  1  1  1  1  1  1  1  1 -1
  31   1  1  1  1  1  1  1  1  1  1  1  1  1  1  1  1  1  1  1  1  1  1  1  1  1  1  1  1  1  1  1  1  1  1  1  1  1  1  1 -1
  32   1  1  1  1  1  1  1  1  1  1  1  1  1  1  1  1  1  1  1  1  1  1  1  1  1  1  1  1  1  1  1  1  1  1  1  1  1  1  1 -1
  33   1  1  1  1  1  1  1  1  1  1  1  1  1  1  1  1  1  1  1  1  1  1  1  1  1  1  1  1  1  1  1  1  1  1  1  1  1  1  1 -1
  34   1  1  1  1  1  1  1  1  1  1  1  1  1  1  1  1  1  1  1  1  1  1  1  1  1  1  1  1  1  1  1  1  1  1  1  1  1  1  1 -1
  35   1  1  1  1  1  1  1  1  1  1  1  1  1  1  1  1  1  1  1  1  1  1  1  1  1  1  1  1  1  1  1  1  1  1  1  1  1  1  1 -1
  36   1  1  1  1  1  1  1  1  1  1  1  1  1  1  1  1  1  1  1  1  1  1  1  1  1  1  1  1  1  1  1  1  1  1  1  1  1  1  1 -1
  37   1  1  1  1  1  1  1  1  1  1  1  1  1  1  1  1  1  1  1  1  1  1  1  1  1  1  1  1  1  1  1  1  1  1  1  1  1  1  1 -1
  38   1  1  1  1  1  1  1  1  1  1  1  1  1  1  1  1  1  1  1  1  1  1  1  1  1  1  1  1  1  1  1  1  1  1  1  1  1  1  1 -1
  39   1  1  1  1  1  1  1  1  1  1  1  1  1  1  1  1  1  1  1  1  1  1  1  1  1  1  1  1  1  1  1  1  1  1  1  1  1  1  1 -1
  40  -1 -1 -1 -1 -1 -1 -1 -1 -1 -1 -1 -1 -1 -1 -1 -1 -1 -1 -1 -1 -1 -1 -1 -1 -1 -1 -1 -1 -1 -1 -1 -1 -1 -1 -1 -1 -1 -1 -1 -1



                     BOUNDARY ARRAY FOR LAYER  14
 READING ON UNIT    2 WITH FORMAT: (20I4)              

       1  2  3  4  5  6  7  8  9 10 11 12 13 14 15 16 17 18 19 20 21 22 23 24 25 26 27 28 29 30 31 32 33 34 35 36 37 38 39 40
 ............................................................................................................................
   1   1  1  1  1  1  1  1  1  1  1  1  1  1  1  1  1  1  1  1  1  1  1  1  1  1  1  1  1  1  1  1  1  1  1  1  1  1  1  1 -1
   2   1  1  1  1  1  1  1  1  1  1  1  1  1  1  1  1  1  1  1  1  1  1  1  1  1  1  1  1  1  1  1  1  1  1  1  1  1  1  1 -1
   3   1  1  1  1  1  1  1  1  1  1  1  1  1  1  1  1  1  1  1  1  1  1  1  1  1  1  1  1  1  1  1  1  1  1  1  1  1  1  1 -1
   4   1  1  1  1  1  1  1  1  1  1  1  1  1  1  1  1  1  1  1  1  1  1  1  1  1  1  1  1  1  1  1  1  1  1  1  1  1  1  1 -1
   5   1  1  1  1  1  1  1  1  1  1  1  1  1  1  1  1  1  1  1  1  1  1  1  1  1  1  1  1  1  1  1  1  1  1  1  1  1  1  1 -1
   6   1  1  1  1  1  1  1  1  1  1  1  1  1  1  1  1  1  1  1  1  1  1  1  1  1  1  1  1  1  1  1  1  1  1  1  1  1  1  1 -1
   7   1  1  1  1  1  1  1  1  1  1  1  1  1  1  1  1  1  1  1  1  1  1  1  1  1  1  1  1  1  1  1  1  1  1  1  1  1  1  1 -1
   8   1  1  1  1  1  1  1  1  1  1  1  1  1  1  1  1  1  1  1  1  1  1  1  1  1  1  1  1  1  1  1  1  1  1  1  1  1  1  1 -1
   9   1  1  1  1  1  1  1  1  1  1  1  1  1  1  1  1  1  1  1  1  1  1  1  1  1  1  1  1  1  1  1  1  1  1  1  1  1  1  1 -1
  10   1  1  1  1  1  1  1  1  1  1  1  1  1  1  1  1  1  1  1  1  1  1  1  1  1  1  1  1  1  1  1  1  1  1  1  1  1  1  1 -1
  11   1  1  1  1  1  1  1  1  1  1  1  1  1  1  1  1  1  1  1  1  1  1  1  1  1  1  1  1  1  1  1  1  1  1  1  1  1  1  1 -1
  12   1  1  1  1  1  1  1  1  1  1  1  1  1  1  1  1  1  1  1  1  1  1  1  1  1  1  1  1  1  1  1  1  1  1  1  1  1  1  1 -1
  13   1  1  1  1  1  1  1  1  1  1  1  1  1  1  1  1  1  1  1  1  1  1  1  1  1  1  1  1  1  1  1  1  1  1  1  1  1  1  1 -1
  14   1  1  1  1  1  1  1  1  1  1  1  1  1  1  1  1  1  1  1  1  1  1  1  1  1  1  1  1  1  1  1  1  1  1  1  1  1  1  1 -1
  15   1  1  1  1  1  1  1  1  1  1  1  1  1  1  1  1  1  1  1  1  1  1  1  1  1  1  1  1  1  1  1  1  1  1  1  1  1  1  1 -1
  16   1  1  1  1  1  1  1  1  1  1  1  1  1  1  1  1  1  1  1  1  1  1  1  1  1  1  1  1  1  1  1  1  1  1  1  1  1  1  1 -1
  17   1  1  1  1  1  1  1  1  1  1  1  1  1  1  1  1  1  1  1  1  1  1  1  1  1  1  1  1  1  1  1  1  1  1  1  1  1  1  1 -1
  18   1  1  1  1  1  1  1  1  1  1  1  1  1  1  1  1  1  1  1  1  1  1  1  1  1  1  1  1  1  1  1  1  1  1  1  1  1  1  1 -1
  19   1  1  1  1  1  1  1  1  1  1  1  1  1  1  1  1  1  1  1  1  1  1  1  1  1  1  1  1  1  1  1  1  1  1  1  1  1  1  1 -1
  20   1  1  1  1  1  1  1  1  1  1  1  1  1  1  1  1  1  1  1  1  1  1  1  1  1  1  1  1  1  1  1  1  1  1  1  1  1  1  1 -1
  21   1  1  1  1  1  1  1  1  1  1  1  1  1  1  1  1  1  1  1  1  1  1  1  1  1  1  1  1  1  1  1  1  1  1  1  1  1  1  1 -1
  22   1  1  1  1  1  1  1  1  1  1  1  1  1  1  1  1  1  1  1  1  1  1  1  1  1  1  1  1  1  1  1  1  1  1  1  1  1  1  1 -1
  23   1  1  1  1  1  1  1  1  1  1  1  1  1  1  1  1  1  1  1  1  1  1  1  1  1  1  1  1  1  1  1  1  1  1  1  1  1  1  1 -1
  24   1  1  1  1  1  1  1  1  1  1  1  1  1  1  1  1  1  1  1  1  1  1  1  1  1  1  1  1  1  1  1  1  1  1  1  1  1  1  1 -1
  25   1  1  1  1  1  1  1  1  1  1  1  1  1  1  1  1  1  1  1  1  1  1  1  1  1  1  1  1  1  1  1  1  1  1  1  1  1  1  1 -1
  26   1  1  1  1  1  1  1  1  1  1  1  1  1  1  1  1  1  1  1  1  1  1  1  1  1  1  1  1  1  1  1  1  1  1  1  1  1  1  1 -1
  27   1  1  1  1  1  1  1  1  1  1  1  1  1  1  1  1  1  1  1  1  1  1  1  1  1  1  1  1  1  1  1  1  1  1  1  1  1  1  1 -1
  28   1  1  1  1  1  1  1  1  1  1  1  1  1  1  1  1  1  1  1  1  1  1  1  1  1  1  1  1  1  1  1  1  1  1  1  1  1  1  1 -1
  29   1  1  1  1  1  1  1  1  1  1  1  1  1  1  1  1  1  1  1  1  1  1  1  1  1  1  1  1  1  1  1  1  1  1  1  1  1  1  1 -1
  30   1  1  1  1  1  1  1  1  1  1  1  1  1  1  1  1  1  1  1  1  1  1  1  1  1  1  1  1  1  1  1  1  1  1  1  1  1  1  1 -1
  31   1  1  1  1  1  1  1  1  1  1  1  1  1  1  1  1  1  1  1  1  1  1  1  1  1  1  1  1  1  1  1  1  1  1  1  1  1  1  1 -1
  32   1  1  1  1  1  1  1  1  1  1  1  1  1  1  1  1  1  1  1  1  1  1  1  1  1  1  1  1  1  1  1  1  1  1  1  1  1  1  1 -1
  33   1  1  1  1  1  1  1  1  1  1  1  1  1  1  1  1  1  1  1  1  1  1  1  1  1  1  1  1  1  1  1  1  1  1  1  1  1  1  1 -1
  34   1  1  1  1  1  1  1  1  1  1  1  1  1  1  1  1  1  1  1  1  1  1  1  1  1  1  1  1  1  1  1  1  1  1  1  1  1  1  1 -1
  35   1  1  1  1  1  1  1  1  1  1  1  1  1  1  1  1  1  1  1  1  1  1  1  1  1  1  1  1  1  1  1  1  1  1  1  1  1  1  1 -1
  36   1  1  1  1  1  1  1  1  1  1  1  1  1  1  1  1  1  1  1  1  1  1  1  1  1  1  1  1  1  1  1  1  1  1  1  1  1  1  1 -1
  37   1  1  1  1  1  1  1  1  1  1  1  1  1  1  1  1  1  1  1  1  1  1  1  1  1  1  1  1  1  1  1  1  1  1  1  1  1  1  1 -1
  38   1  1  1  1  1  1  1  1  1  1  1  1  1  1  1  1  1  1  1  1  1  1  1  1  1  1  1  1  1  1  1  1  1  1  1  1  1  1  1 -1
  39   1  1  1  1  1  1  1  1  1  1  1  1  1  1  1  1  1  1  1  1  1  1  1  1  1  1  1  1  1  1  1  1  1  1  1  1  1  1  1 -1
  40  -1 -1 -1 -1 -1 -1 -1 -1 -1 -1 -1 -1 -1 -1 -1 -1 -1 -1 -1 -1 -1 -1 -1 -1 -1 -1 -1 -1 -1 -1 -1 -1 -1 -1 -1 -1 -1 -1 -1 -1

 AQUIFER HEAD WILL BE SET TO  -99.900     AT ALL NO-FLOW NODES (IBOUND=0).

             INITIAL HEAD =   25.0000     FOR LAYER   1

             INITIAL HEAD =   25.0000     FOR LAYER   2

             INITIAL HEAD =   25.0000     FOR LAYER   3

             INITIAL HEAD =   25.0000     FOR LAYER   4

             INITIAL HEAD =   25.0000     FOR LAYER   5

             INITIAL HEAD =   25.0000     FOR LAYER   6

             INITIAL HEAD =   25.0000     FOR LAYER   7

             INITIAL HEAD =   25.0000     FOR LAYER   8

             INITIAL HEAD =   25.0000     FOR LAYER   9

             INITIAL HEAD =   25.0000     FOR LAYER  10

             INITIAL HEAD =   25.0000     FOR LAYER  11

             INITIAL HEAD =   25.0000     FOR LAYER  12

             INITIAL HEAD =   25.0000     FOR LAYER  13

             INITIAL HEAD =   25.0000     FOR LAYER  14

 OUTPUT CONTROL IS SPECIFIED ONLY AT TIME STEPS FOR WHICH OUTPUT IS DESIRED
 HEADS WILL BE SAVED WITH FORMAT: (10F10.3)           
 SAVED HEADS WILL BE LABELED
 COMPACT CELL-BY-CELL BUDGET FILES WILL BE WRITTEN
 IBOUND WILL BE SAVED WITH FORMAT: (40I2)              
 HEAD PRINT FORMAT CODE IS  12    DRAWDOWN PRINT FORMAT CODE IS   9
 HEADS WILL BE SAVED ON UNIT   51    DRAWDOWNS WILL BE SAVED ON UNIT    0
 # MODFLOW-NWT data for Prob 2 from McDonald and others (1991)

 NWT1 -- Newton Solver, VERSION 1.1.4, 4/01/2018
         INPUT READ FROM UNIT 34

 SPECIFIED OPTION:
 SOLVER INPUT VALUES ARE SPECIFIED BY USER
 ***XMD linear solver will be used***
 
   CONVERGENCE CRITERION OF   0.100000E-03 FOR HEAD SOLUTION
   AND A TOLERANCE OF   0.100000E+01 FOR FLOW SOLUTION AND 
   A MAXIMUM OF   500 OUTER ITERATIONS. 


   D-B-D REDUCTION FACTOR OF    0.970000E+00 AND 
   A D-B-D INCREASE FACTOR OF    0.100000E-03 AND 
   A D-B-D RELAXATION OF    0.000000E+00 AND 
   A MOMENTUM FACTOR OF    0.100000E+00 .


   BACKTRACKING IS ACTIVE 
   THE MAXIMUM NUMBER OF BACKTRACKS IS    20 AND 
   THE BACKTRACKING TOLERANCE IS    0.150000E+01 AND
   THE BACKTRACKING REDUCTION FACTOR IS    0.700000E+00

 XMD -- LINEAR SOLUTION BY XMD PACKAGE VERSION 1.30
     BY MOTOMU IBARAKI, OHIO STATE UNIVERSITY, COLOMBUS, OH
                 INPUT READ FROM UNIT 34
 ACCELERATION METHOD                    (IACL) =         2
 NODE ORDERING FLAG                   (NORDER) =         0
 LEVEL OF FILL                         (LEVEL) =         3
 MAXIMUM NUMBER OF ORTHOGONALIZATIONS  (NORTH) =         5
 INDEX FOR USING REDUCED SYSTEM      (IREDSYS) =         1
 RESID. REDUCTION CONVERGE CRITERION  (RRCTOL) =  0.000000E+00
 INDEX FOR USING DROP TOLERANCE     (IDROPTOL) =         0
 DROP TOLERANCE VALUE                  (EPSRN) =  0.100000E-03
 CONVERGENCE CRITERIA OF           (HCLOSEXMD) =  0.100000E-02
 MAX. NUMBER OF LINEAR ITERATIONS  (MXITERXMD) =        50


 UPW1 -- UPSTREAM WEIGHTING FLOW PACKAGE, VERSION 1.1.4, 4/01/2018
         INPUT READ FROM UNIT 35

 # UPW data for Prob 2 from McDonald and others (1991)
 CELL-BY-CELL FLOWS WILL BE SAVED ON UNIT   32
 No named parameters

   LAYER FLAGS:
 LAYER       LAYTYP          LAYAVG    CHANI           LAYVKA           LAYWET
 ---------------------------------------------------------------------------
    1             1             1     1.000E+00             0             0
    2             1             1     1.000E+00             0             0
    3             1             1     1.000E+00             0             0
    4             1             1     1.000E+00             0             0
    5             1             1     1.000E+00             0             0
    6             1             1     1.000E+00             0             0
    7             1             1     1.000E+00             0             0
    8             1             1     1.000E+00             0             0
    9             1             1     1.000E+00             0             0
   10             0             1     1.000E+00             0             0
   11             0             1     1.000E+00             0             0
   12             0             1     1.000E+00             0             0
   13             0             1     1.000E+00             0             0
   14             0             1     1.000E+00             0             0

   INTERPRETATION OF LAYER FLAGS:
                        INTERBLOCK     HORIZONTAL    DATA IN
         LAYER TYPE   TRANSMISSIVITY   ANISOTROPY   ARRAY VKA   WETTABILITY
 LAYER   (LAYTYP)        (LAYAVG)      (CHANI)     (LAYVKA)       (LAYWET)
 ---------------------------------------------------------------------------
    1   CONVERTIBLE   LOGARITHMIC     1.000E+00    VERTICAL K  NON-WETTABLE
    2   CONVERTIBLE   LOGARITHMIC     1.000E+00    VERTICAL K  NON-WETTABLE
    3   CONVERTIBLE   LOGARITHMIC     1.000E+00    VERTICAL K  NON-WETTABLE
    4   CONVERTIBLE   LOGARITHMIC     1.000E+00    VERTICAL K  NON-WETTABLE
    5   CONVERTIBLE   LOGARITHMIC     1.000E+00    VERTICAL K  NON-WETTABLE
    6   CONVERTIBLE   LOGARITHMIC     1.000E+00    VERTICAL K  NON-WETTABLE
    7   CONVERTIBLE   LOGARITHMIC     1.000E+00    VERTICAL K  NON-WETTABLE
    8   CONVERTIBLE   LOGARITHMIC     1.000E+00    VERTICAL K  NON-WETTABLE
    9   CONVERTIBLE   LOGARITHMIC     1.000E+00    VERTICAL K  NON-WETTABLE
   10      CONFINED   LOGARITHMIC     1.000E+00    VERTICAL K  NON-WETTABLE
   11      CONFINED   LOGARITHMIC     1.000E+00    VERTICAL K  NON-WETTABLE
   12      CONFINED   LOGARITHMIC     1.000E+00    VERTICAL K  NON-WETTABLE
   13      CONFINED   LOGARITHMIC     1.000E+00    VERTICAL K  NON-WETTABLE
   14      CONFINED   LOGARITHMIC     1.000E+00    VERTICAL K  NON-WETTABLE

    HYD. COND. ALONG ROWS =   5.00000     FOR LAYER   1

      VERTICAL HYD. COND. =  0.250000     FOR LAYER   1

         SPECIFIC STORAGE =  2.000000E-04 FOR LAYER   1

           SPECIFIC YIELD =  0.200000     FOR LAYER   1

    HYD. COND. ALONG ROWS =   5.00000     FOR LAYER   2

      VERTICAL HYD. COND. =  0.250000     FOR LAYER   2

         SPECIFIC STORAGE =  2.000000E-04 FOR LAYER   2

           SPECIFIC YIELD =  0.200000     FOR LAYER   2

    HYD. COND. ALONG ROWS =   5.00000     FOR LAYER   3

      VERTICAL HYD. COND. =  0.250000     FOR LAYER   3

         SPECIFIC STORAGE =  2.000000E-04 FOR LAYER   3

           SPECIFIC YIELD =  0.200000     FOR LAYER   3

    HYD. COND. ALONG ROWS =   5.00000     FOR LAYER   4

      VERTICAL HYD. COND. =  0.250000     FOR LAYER   4

         SPECIFIC STORAGE =  2.000000E-04 FOR LAYER   4

           SPECIFIC YIELD =  0.200000     FOR LAYER   4

    HYD. COND. ALONG ROWS =   5.00000     FOR LAYER   5

      VERTICAL HYD. COND. =  0.250000     FOR LAYER   5

         SPECIFIC STORAGE =  2.000000E-04 FOR LAYER   5

           SPECIFIC YIELD =  0.200000     FOR LAYER   5

    HYD. COND. ALONG ROWS =   5.00000     FOR LAYER   6

      VERTICAL HYD. COND. =  0.250000     FOR LAYER   6

         SPECIFIC STORAGE =  2.000000E-04 FOR LAYER   6

           SPECIFIC YIELD =  0.200000     FOR LAYER   6

    HYD. COND. ALONG ROWS =   5.00000     FOR LAYER   7

      VERTICAL HYD. COND. =  0.250000     FOR LAYER   7

         SPECIFIC STORAGE =  2.000000E-04 FOR LAYER   7

           SPECIFIC YIELD =  0.200000     FOR LAYER   7

    HYD. COND. ALONG ROWS =   5.00000     FOR LAYER   8

      VERTICAL HYD. COND. =  0.250000     FOR LAYER   8

         SPECIFIC STORAGE =  2.000000E-04 FOR LAYER   8

           SPECIFIC YIELD =  0.200000     FOR LAYER   8

    HYD. COND. ALONG ROWS =   5.00000     FOR LAYER   9

      VERTICAL HYD. COND. =  0.250000     FOR LAYER   9

         SPECIFIC STORAGE =  2.000000E-04 FOR LAYER   9

           SPECIFIC YIELD =  0.200000     FOR LAYER   9

    HYD. COND. ALONG ROWS =   5.00000     FOR LAYER  10

      VERTICAL HYD. COND. =  0.250000     FOR LAYER  10

         SPECIFIC STORAGE =  2.000000E-04 FOR LAYER  10

    HYD. COND. ALONG ROWS =   5.00000     FOR LAYER  11

      VERTICAL HYD. COND. =  0.250000     FOR LAYER  11

         SPECIFIC STORAGE =  2.000000E-04 FOR LAYER  11

    HYD. COND. ALONG ROWS =   5.00000     FOR LAYER  12

      VERTICAL HYD. COND. =  0.250000     FOR LAYER  12

         SPECIFIC STORAGE =  2.000000E-04 FOR LAYER  12

    HYD. COND. ALONG ROWS =   5.00000     FOR LAYER  13

      VERTICAL HYD. COND. =  0.250000     FOR LAYER  13

         SPECIFIC STORAGE =  2.000000E-04 FOR LAYER  13

    HYD. COND. ALONG ROWS =   5.00000     FOR LAYER  14

      VERTICAL HYD. COND. =  0.250000     FOR LAYER  14

         SPECIFIC STORAGE =  2.000000E-04 FOR LAYER  14

 RCH -- RECHARGE PACKAGE, VERSION 7, 5/2/2005 INPUT READ FROM UNIT   18
 No named parameters
 OPTION 3 -- RECHARGE TO HIGHEST ACTIVE NODE IN EACH VERTICAL COLUMN
 CELL-BY-CELL FLOWS WILL BE SAVED ON UNIT   32


     0 Recharge parameters
1
                            STRESS PERIOD NO.    1, LENGTH =   190.0000    
                            -----------------------------------------------

                              NUMBER OF TIME STEPS =    10

                               MULTIPLIER FOR DELT =     1.000

                            INITIAL TIME STEP SIZE =   19.00000    



                           RECHARGE
 READING ON UNIT   18 WITH FORMAT: (10F10.0)           

         1     2     3     4     5     6     7     8     9    10    11    12    13    14    15    16    17    18    19    20
        21    22    23    24    25    26    27    28    29    30    31    32    33    34    35    36    37    38    39    40
 ...........................................................................................................................
   1   0.05  0.05  0.00  0.00  0.00  0.00  0.00  0.00  0.00  0.00  0.00  0.00  0.00  0.00  0.00  0.00  0.00  0.00  0.00  0.00
       0.00  0.00  0.00  0.00  0.00  0.00  0.00  0.00  0.00  0.00  0.00  0.00  0.00  0.00  0.00  0.00  0.00  0.00  0.00  0.00
   2   0.05  0.05  0.00  0.00  0.00  0.00  0.00  0.00  0.00  0.00  0.00  0.00  0.00  0.00  0.00  0.00  0.00  0.00  0.00  0.00
       0.00  0.00  0.00  0.00  0.00  0.00  0.00  0.00  0.00  0.00  0.00  0.00  0.00  0.00  0.00  0.00  0.00  0.00  0.00  0.00
   3   0.00  0.00  0.00  0.00  0.00  0.00  0.00  0.00  0.00  0.00  0.00  0.00  0.00  0.00  0.00  0.00  0.00  0.00  0.00  0.00
       0.00  0.00  0.00  0.00  0.00  0.00  0.00  0.00  0.00  0.00  0.00  0.00  0.00  0.00  0.00  0.00  0.00  0.00  0.00  0.00
   4   0.00  0.00  0.00  0.00  0.00  0.00  0.00  0.00  0.00  0.00  0.00  0.00  0.00  0.00  0.00  0.00  0.00  0.00  0.00  0.00
       0.00  0.00  0.00  0.00  0.00  0.00  0.00  0.00  0.00  0.00  0.00  0.00  0.00  0.00  0.00  0.00  0.00  0.00  0.00  0.00
   5   0.00  0.00  0.00  0.00  0.00  0.00  0.00  0.00  0.00  0.00  0.00  0.00  0.00  0.00  0.00  0.00  0.00  0.00  0.00  0.00
       0.00  0.00  0.00  0.00  0.00  0.00  0.00  0.00  0.00  0.00  0.00  0.00  0.00  0.00  0.00  0.00  0.00  0.00  0.00  0.00
   6   0.00  0.00  0.00  0.00  0.00  0.00  0.00  0.00  0.00  0.00  0.00  0.00  0.00  0.00  0.00  0.00  0.00  0.00  0.00  0.00
       0.00  0.00  0.00  0.00  0.00  0.00  0.00  0.00  0.00  0.00  0.00  0.00  0.00  0.00  0.00  0.00  0.00  0.00  0.00  0.00
   7   0.00  0.00  0.00  0.00  0.00  0.00  0.00  0.00  0.00  0.00  0.00  0.00  0.00  0.00  0.00  0.00  0.00  0.00  0.00  0.00
       0.00  0.00  0.00  0.00  0.00  0.00  0.00  0.00  0.00  0.00  0.00  0.00  0.00  0.00  0.00  0.00  0.00  0.00  0.00  0.00
   8   0.00  0.00  0.00  0.00  0.00  0.00  0.00  0.00  0.00  0.00  0.00  0.00  0.00  0.00  0.00  0.00  0.00  0.00  0.00  0.00
       0.00  0.00  0.00  0.00  0.00  0.00  0.00  0.00  0.00  0.00  0.00  0.00  0.00  0.00  0.00  0.00  0.00  0.00  0.00  0.00
   9   0.00  0.00  0.00  0.00  0.00  0.00  0.00  0.00  0.00  0.00  0.00  0.00  0.00  0.00  0.00  0.00  0.00  0.00  0.00  0.00
       0.00  0.00  0.00  0.00  0.00  0.00  0.00  0.00  0.00  0.00  0.00  0.00  0.00  0.00  0.00  0.00  0.00  0.00  0.00  0.00
  10   0.00  0.00  0.00  0.00  0.00  0.00  0.00  0.00  0.00  0.00  0.00  0.00  0.00  0.00  0.00  0.00  0.00  0.00  0.00  0.00
       0.00  0.00  0.00  0.00  0.00  0.00  0.00  0.00  0.00  0.00  0.00  0.00  0.00  0.00  0.00  0.00  0.00  0.00  0.00  0.00
  11   0.00  0.00  0.00  0.00  0.00  0.00  0.00  0.00  0.00  0.00  0.00  0.00  0.00  0.00  0.00  0.00  0.00  0.00  0.00  0.00
       0.00  0.00  0.00  0.00  0.00  0.00  0.00  0.00  0.00  0.00  0.00  0.00  0.00  0.00  0.00  0.00  0.00  0.00  0.00  0.00
  12   0.00  0.00  0.00  0.00  0.00  0.00  0.00  0.00  0.00  0.00  0.00  0.00  0.00  0.00  0.00  0.00  0.00  0.00  0.00  0.00
       0.00  0.00  0.00  0.00  0.00  0.00  0.00  0.00  0.00  0.00  0.00  0.00  0.00  0.00  0.00  0.00  0.00  0.00  0.00  0.00
  13   0.00  0.00  0.00  0.00  0.00  0.00  0.00  0.00  0.00  0.00  0.00  0.00  0.00  0.00  0.00  0.00  0.00  0.00  0.00  0.00
       0.00  0.00  0.00  0.00  0.00  0.00  0.00  0.00  0.00  0.00  0.00  0.00  0.00  0.00  0.00  0.00  0.00  0.00  0.00  0.00
  14   0.00  0.00  0.00  0.00  0.00  0.00  0.00  0.00  0.00  0.00  0.00  0.00  0.00  0.00  0.00  0.00  0.00  0.00  0.00  0.00
       0.00  0.00  0.00  0.00  0.00  0.00  0.00  0.00  0.00  0.00  0.00  0.00  0.00  0.00  0.00  0.00  0.00  0.00  0.00  0.00
  15   0.00  0.00  0.00  0.00  0.00  0.00  0.00  0.00  0.00  0.00  0.00  0.00  0.00  0.00  0.00  0.00  0.00  0.00  0.00  0.00
       0.00  0.00  0.00  0.00  0.00  0.00  0.00  0.00  0.00  0.00  0.00  0.00  0.00  0.00  0.00  0.00  0.00  0.00  0.00  0.00
  16   0.00  0.00  0.00  0.00  0.00  0.00  0.00  0.00  0.00  0.00  0.00  0.00  0.00  0.00  0.00  0.00  0.00  0.00  0.00  0.00
       0.00  0.00  0.00  0.00  0.00  0.00  0.00  0.00  0.00  0.00  0.00  0.00  0.00  0.00  0.00  0.00  0.00  0.00  0.00  0.00
  17   0.00  0.00  0.00  0.00  0.00  0.00  0.00  0.00  0.00  0.00  0.00  0.00  0.00  0.00  0.00  0.00  0.00  0.00  0.00  0.00
       0.00  0.00  0.00  0.00  0.00  0.00  0.00  0.00  0.00  0.00  0.00  0.00  0.00  0.00  0.00  0.00  0.00  0.00  0.00  0.00
  18   0.00  0.00  0.00  0.00  0.00  0.00  0.00  0.00  0.00  0.00  0.00  0.00  0.00  0.00  0.00  0.00  0.00  0.00  0.00  0.00
       0.00  0.00  0.00  0.00  0.00  0.00  0.00  0.00  0.00  0.00  0.00  0.00  0.00  0.00  0.00  0.00  0.00  0.00  0.00  0.00
  19   0.00  0.00  0.00  0.00  0.00  0.00  0.00  0.00  0.00  0.00  0.00  0.00  0.00  0.00  0.00  0.00  0.00  0.00  0.00  0.00
       0.00  0.00  0.00  0.00  0.00  0.00  0.00  0.00  0.00  0.00  0.00  0.00  0.00  0.00  0.00  0.00  0.00  0.00  0.00  0.00
  20   0.00  0.00  0.00  0.00  0.00  0.00  0.00  0.00  0.00  0.00  0.00  0.00  0.00  0.00  0.00  0.00  0.00  0.00  0.00  0.00
       0.00  0.00  0.00  0.00  0.00  0.00  0.00  0.00  0.00  0.00  0.00  0.00  0.00  0.00  0.00  0.00  0.00  0.00  0.00  0.00
  21   0.00  0.00  0.00  0.00  0.00  0.00  0.00  0.00  0.00  0.00  0.00  0.00  0.00  0.00  0.00  0.00  0.00  0.00  0.00  0.00
       0.00  0.00  0.00  0.00  0.00  0.00  0.00  0.00  0.00  0.00  0.00  0.00  0.00  0.00  0.00  0.00  0.00  0.00  0.00  0.00
  22   0.00  0.00  0.00  0.00  0.00  0.00  0.00  0.00  0.00  0.00  0.00  0.00  0.00  0.00  0.00  0.00  0.00  0.00  0.00  0.00
       0.00  0.00  0.00  0.00  0.00  0.00  0.00  0.00  0.00  0.00  0.00  0.00  0.00  0.00  0.00  0.00  0.00  0.00  0.00  0.00
  23   0.00  0.00  0.00  0.00  0.00  0.00  0.00  0.00  0.00  0.00  0.00  0.00  0.00  0.00  0.00  0.00  0.00  0.00  0.00  0.00
       0.00  0.00  0.00  0.00  0.00  0.00  0.00  0.00  0.00  0.00  0.00  0.00  0.00  0.00  0.00  0.00  0.00  0.00  0.00  0.00
  24   0.00  0.00  0.00  0.00  0.00  0.00  0.00  0.00  0.00  0.00  0.00  0.00  0.00  0.00  0.00  0.00  0.00  0.00  0.00  0.00
       0.00  0.00  0.00  0.00  0.00  0.00  0.00  0.00  0.00  0.00  0.00  0.00  0.00  0.00  0.00  0.00  0.00  0.00  0.00  0.00
  25   0.00  0.00  0.00  0.00  0.00  0.00  0.00  0.00  0.00  0.00  0.00  0.00  0.00  0.00  0.00  0.00  0.00  0.00  0.00  0.00
       0.00  0.00  0.00  0.00  0.00  0.00  0.00  0.00  0.00  0.00  0.00  0.00  0.00  0.00  0.00  0.00  0.00  0.00  0.00  0.00
  26   0.00  0.00  0.00  0.00  0.00  0.00  0.00  0.00  0.00  0.00  0.00  0.00  0.00  0.00  0.00  0.00  0.00  0.00  0.00  0.00
       0.00  0.00  0.00  0.00  0.00  0.00  0.00  0.00  0.00  0.00  0.00  0.00  0.00  0.00  0.00  0.00  0.00  0.00  0.00  0.00
  27   0.00  0.00  0.00  0.00  0.00  0.00  0.00  0.00  0.00  0.00  0.00  0.00  0.00  0.00  0.00  0.00  0.00  0.00  0.00  0.00
       0.00  0.00  0.00  0.00  0.00  0.00  0.00  0.00  0.00  0.00  0.00  0.00  0.00  0.00  0.00  0.00  0.00  0.00  0.00  0.00
  28   0.00  0.00  0.00  0.00  0.00  0.00  0.00  0.00  0.00  0.00  0.00  0.00  0.00  0.00  0.00  0.00  0.00  0.00  0.00  0.00
       0.00  0.00  0.00  0.00  0.00  0.00  0.00  0.00  0.00  0.00  0.00  0.00  0.00  0.00  0.00  0.00  0.00  0.00  0.00  0.00
  29   0.00  0.00  0.00  0.00  0.00  0.00  0.00  0.00  0.00  0.00  0.00  0.00  0.00  0.00  0.00  0.00  0.00  0.00  0.00  0.00
       0.00  0.00  0.00  0.00  0.00  0.00  0.00  0.00  0.00  0.00  0.00  0.00  0.00  0.00  0.00  0.00  0.00  0.00  0.00  0.00
  30   0.00  0.00  0.00  0.00  0.00  0.00  0.00  0.00  0.00  0.00  0.00  0.00  0.00  0.00  0.00  0.00  0.00  0.00  0.00  0.00
       0.00  0.00  0.00  0.00  0.00  0.00  0.00  0.00  0.00  0.00  0.00  0.00  0.00  0.00  0.00  0.00  0.00  0.00  0.00  0.00
  31   0.00  0.00  0.00  0.00  0.00  0.00  0.00  0.00  0.00  0.00  0.00  0.00  0.00  0.00  0.00  0.00  0.00  0.00  0.00  0.00
       0.00  0.00  0.00  0.00  0.00  0.00  0.00  0.00  0.00  0.00  0.00  0.00  0.00  0.00  0.00  0.00  0.00  0.00  0.00  0.00
  32   0.00  0.00  0.00  0.00  0.00  0.00  0.00  0.00  0.00  0.00  0.00  0.00  0.00  0.00  0.00  0.00  0.00  0.00  0.00  0.00
       0.00  0.00  0.00  0.00  0.00  0.00  0.00  0.00  0.00  0.00  0.00  0.00  0.00  0.00  0.00  0.00  0.00  0.00  0.00  0.00
  33   0.00  0.00  0.00  0.00  0.00  0.00  0.00  0.00  0.00  0.00  0.00  0.00  0.00  0.00  0.00  0.00  0.00  0.00  0.00  0.00
       0.00  0.00  0.00  0.00  0.00  0.00  0.00  0.00  0.00  0.00  0.00  0.00  0.00  0.00  0.00  0.00  0.00  0.00  0.00  0.00
  34   0.00  0.00  0.00  0.00  0.00  0.00  0.00  0.00  0.00  0.00  0.00  0.00  0.00  0.00  0.00  0.00  0.00  0.00  0.00  0.00
       0.00  0.00  0.00  0.00  0.00  0.00  0.00  0.00  0.00  0.00  0.00  0.00  0.00  0.00  0.00  0.00  0.00  0.00  0.00  0.00
  35   0.00  0.00  0.00  0.00  0.00  0.00  0.00  0.00  0.00  0.00  0.00  0.00  0.00  0.00  0.00  0.00  0.00  0.00  0.00  0.00
       0.00  0.00  0.00  0.00  0.00  0.00  0.00  0.00  0.00  0.00  0.00  0.00  0.00  0.00  0.00  0.00  0.00  0.00  0.00  0.00
  36   0.00  0.00  0.00  0.00  0.00  0.00  0.00  0.00  0.00  0.00  0.00  0.00  0.00  0.00  0.00  0.00  0.00  0.00  0.00  0.00
       0.00  0.00  0.00  0.00  0.00  0.00  0.00  0.00  0.00  0.00  0.00  0.00  0.00  0.00  0.00  0.00  0.00  0.00  0.00  0.00
  37   0.00  0.00  0.00  0.00  0.00  0.00  0.00  0.00  0.00  0.00  0.00  0.00  0.00  0.00  0.00  0.00  0.00  0.00  0.00  0.00
       0.00  0.00  0.00  0.00  0.00  0.00  0.00  0.00  0.00  0.00  0.00  0.00  0.00  0.00  0.00  0.00  0.00  0.00  0.00  0.00
  38   0.00  0.00  0.00  0.00  0.00  0.00  0.00  0.00  0.00  0.00  0.00  0.00  0.00  0.00  0.00  0.00  0.00  0.00  0.00  0.00
       0.00  0.00  0.00  0.00  0.00  0.00  0.00  0.00  0.00  0.00  0.00  0.00  0.00  0.00  0.00  0.00  0.00  0.00  0.00  0.00
  39   0.00  0.00  0.00  0.00  0.00  0.00  0.00  0.00  0.00  0.00  0.00  0.00  0.00  0.00  0.00  0.00  0.00  0.00  0.00  0.00
       0.00  0.00  0.00  0.00  0.00  0.00  0.00  0.00  0.00  0.00  0.00  0.00  0.00  0.00  0.00  0.00  0.00  0.00  0.00  0.00
  40   0.00  0.00  0.00  0.00  0.00  0.00  0.00  0.00  0.00  0.00  0.00  0.00  0.00  0.00  0.00  0.00  0.00  0.00  0.00  0.00
       0.00  0.00  0.00  0.00  0.00  0.00  0.00  0.00  0.00  0.00  0.00  0.00  0.00  0.00  0.00  0.00  0.00  0.00  0.00  0.00
 
 SOLVING FOR HEAD 
                                                   Max.-Head-Change                        Max.-Flux-Residual
  Residual-Control   Outer-Iter.   Inner-Iter.     Column Row Layer    Max.-Head-Change    Column Row Layer    Max.-Flux-Residual            L2-New               L2-Old           Solver-Max-Delh
          0                 1          10             1    1     1       0.3884072921E+02       2    1    1       0.7812500000E+03      0.1562500000E+04      0.0000000000E+00      0.3884072921E+02
          1                 1           0             1    1     1       0.2718850998E+02       2    2    5      -0.1325220423E+04      0.9423669599E+04      0.1562500000E+04      0.3884072921E+02
          2                 1           0             1    1     1       0.1903195666E+02       2    2    7      -0.1096222499E+04      0.7171312467E+04      0.9423669599E+04      0.3884072921E+02
          3                 1           0             1    1     1       0.1332236944E+02       2    2    8      -0.9867228030E+03      0.5514547904E+04      0.7171312467E+04      0.3884072921E+02
          4                 1           0             1    1     1       0.9325658448E+01       2    2    9      -0.9182784804E+03      0.4281976652E+04      0.5514547904E+04      0.3884072921E+02
          5                 1           0             1    1     1       0.6527960802E+01       2    2    9      -0.8895054615E+03      0.3281516079E+04      0.4281976652E+04      0.3884072921E+02
          6                 1           0             1    1     1       0.4569572484E+01       1    1    9      -0.8295406530E+03      0.2621440304E+04      0.3281516079E+04      0.3884072921E+02
          0                 2           2             1    1     1       0.8944675035E+01       1    1    1       0.6802205590E+03      0.2098839356E+04      0.2621440304E+04      0.8944675035E+01
          0                 3           4             1    1     1      -0.8621853507E+00       1    1    1      -0.6787106168E+02      0.1835400196E+03      0.2098839356E+04     -0.8621853507E+00
          0                 4           2             4    4     9      -0.1297324209E+00       4    4    9      -0.3188994273E+02      0.1398493191E+03      0.1835400196E+03     -0.1297324209E+00
                                                   Max.-Head-Change                        Max.-Flux-Residual
  Residual-Control   Outer-Iter.   Inner-Iter.     Column Row Layer    Max.-Head-Change    Column Row Layer    Max.-Flux-Residual            L2-New               L2-Old           Solver-Max-Delh
          0                 5           2             1    1     1      -0.2148127219E-02       2    2    9       0.5482110254E+00      0.1805244776E+01      0.1398493191E+03     -0.2148127219E-02
          0                 6           2             3   10     9      -0.1120225999E-02       2   10    9      -0.2890290635E+00      0.1668173381E+01      0.1805244776E+01     -0.1120225999E-02
          0                 7           1             3   10     1      -0.4770779253E-04       2   10    9      -0.1193214687E-01      0.7166030683E-01      0.1668173381E+01     -0.4770779253E-04

    ------------------------------------------------
       NWT REQUIRED            7 OUTER ITERATIONS 
       AND A TOTAL OF         23 INNER ITERATIONS.
    ------------------------------------------------

 OUTPUT CONTROL FOR STRESS PERIOD    1   TIME STEP    1
    SAVE BUDGET
    PRINT HEAD FOR ALL LAYERS
    PRINT BUDGET
    SAVE HEAD FOR ALL LAYERS
 UBDSV1 SAVING "         STORAGE" ON UNIT  32 AT TIME STEP 1, STRESS PERIOD 1
 UBDSV2 SAVING "   CONSTANT HEAD" ON UNIT  32 AT TIME STEP 1, STRESS PERIOD 1
 UBDSV1 SAVING "FLOW RIGHT FACE " ON UNIT  32 AT TIME STEP 1, STRESS PERIOD 1
 UBDSV1 SAVING "FLOW FRONT FACE " ON UNIT  32 AT TIME STEP 1, STRESS PERIOD 1
 UBDSV1 SAVING "FLOW LOWER FACE " ON UNIT  32 AT TIME STEP 1, STRESS PERIOD 1
 UBDSV3 SAVING "        RECHARGE" ON UNIT  32 AT TIME STEP 1, STRESS PERIOD 1
1
              HEAD IN LAYER 1 AT END OF TIME STEP 1 IN STRESS PERIOD 1
  ---------------------------------------------------------------------------

            1           2           3           4           5           6           7           8           9          10
           11          12          13          14          15          16          17          18          19          20
           21          22          23          24          25          26          27          28          29          30
           31          32          33          34          35          36          37          38          39          40
 ........................................................................................................................
   1   -99.90      -99.90      -99.90      -99.90      -99.90      -99.90      -99.90      -99.90      -99.90      -99.90    
       -99.90      -99.90      -99.90      -99.90      -99.90      -99.90      -99.90      -99.90      -99.90      -99.90    
       -99.90      -99.90      -99.90      -99.90      -99.90      -99.90      -99.90      -99.90      -99.90      -99.90    
       -99.90      -99.90      -99.90      -99.90      -99.90      -99.90      -99.90      -99.90      -99.90      -99.90    
   2   -99.90      -99.90      -99.90      -99.90      -99.90      -99.90      -99.90      -99.90      -99.90      -99.90    
       -99.90      -99.90      -99.90      -99.90      -99.90      -99.90      -99.90      -99.90      -99.90      -99.90    
       -99.90      -99.90      -99.90      -99.90      -99.90      -99.90      -99.90      -99.90      -99.90      -99.90    
       -99.90      -99.90      -99.90      -99.90      -99.90      -99.90      -99.90      -99.90      -99.90      -99.90    
   3   -99.90      -99.90      -99.90      -99.90      -99.90      -99.90      -99.90      -99.90      -99.90      -99.90    
       -99.90      -99.90      -99.90      -99.90      -99.90      -99.90      -99.90      -99.90      -99.90      -99.90    
       -99.90      -99.90      -99.90      -99.90      -99.90      -99.90      -99.90      -99.90      -99.90      -99.90    
       -99.90      -99.90      -99.90      -99.90      -99.90      -99.90      -99.90      -99.90      -99.90      -99.90    
   4   -99.90      -99.90      -99.90      -99.90      -99.90      -99.90      -99.90      -99.90      -99.90      -99.90    
       -99.90      -99.90      -99.90      -99.90      -99.90      -99.90      -99.90      -99.90      -99.90      -99.90    
       -99.90      -99.90      -99.90      -99.90      -99.90      -99.90      -99.90      -99.90      -99.90      -99.90    
       -99.90      -99.90      -99.90      -99.90      -99.90      -99.90      -99.90      -99.90      -99.90      -99.90    
   5   -99.90      -99.90      -99.90      -99.90      -99.90      -99.90      -99.90      -99.90      -99.90      -99.90    
       -99.90      -99.90      -99.90      -99.90      -99.90      -99.90      -99.90      -99.90      -99.90      -99.90    
       -99.90      -99.90      -99.90      -99.90      -99.90      -99.90      -99.90      -99.90      -99.90      -99.90    
       -99.90      -99.90      -99.90      -99.90      -99.90      -99.90      -99.90      -99.90      -99.90      -99.90    
   6   -99.90      -99.90      -99.90      -99.90      -99.90      -99.90      -99.90      -99.90      -99.90      -99.90    
       -99.90      -99.90      -99.90      -99.90      -99.90      -99.90      -99.90      -99.90      -99.90      -99.90    
       -99.90      -99.90      -99.90      -99.90      -99.90      -99.90      -99.90      -99.90      -99.90      -99.90    
       -99.90      -99.90      -99.90      -99.90      -99.90      -99.90      -99.90      -99.90      -99.90      -99.90    
   7   -99.90      -99.90      -99.90      -99.90      -99.90      -99.90      -99.90      -99.90      -99.90      -99.90    
       -99.90      -99.90      -99.90      -99.90      -99.90      -99.90      -99.90      -99.90      -99.90      -99.90    
       -99.90      -99.90      -99.90      -99.90      -99.90      -99.90      -99.90      -99.90      -99.90      -99.90    
       -99.90      -99.90      -99.90      -99.90      -99.90      -99.90      -99.90      -99.90      -99.90      -99.90    
   8   -99.90      -99.90      -99.90      -99.90      -99.90      -99.90      -99.90      -99.90      -99.90      -99.90    
       -99.90      -99.90      -99.90      -99.90      -99.90      -99.90      -99.90      -99.90      -99.90      -99.90    
       -99.90      -99.90      -99.90      -99.90      -99.90      -99.90      -99.90      -99.90      -99.90      -99.90    
       -99.90      -99.90      -99.90      -99.90      -99.90      -99.90      -99.90      -99.90      -99.90      -99.90    
   9   -99.90      -99.90      -99.90      -99.90      -99.90      -99.90      -99.90      -99.90      -99.90      -99.90    
       -99.90      -99.90      -99.90      -99.90      -99.90      -99.90      -99.90      -99.90      -99.90      -99.90    
       -99.90      -99.90      -99.90      -99.90      -99.90      -99.90      -99.90      -99.90      -99.90      -99.90    
       -99.90      -99.90      -99.90      -99.90      -99.90      -99.90      -99.90      -99.90      -99.90      -99.90    
  10   -99.90      -99.90      -99.90      -99.90      -99.90      -99.90      -99.90      -99.90      -99.90      -99.90    
       -99.90      -99.90      -99.90      -99.90      -99.90      -99.90      -99.90      -99.90      -99.90      -99.90    
       -99.90      -99.90      -99.90      -99.90      -99.90      -99.90      -99.90      -99.90      -99.90      -99.90    
       -99.90      -99.90      -99.90      -99.90      -99.90      -99.90      -99.90      -99.90      -99.90      -99.90    
  11   -99.90      -99.90      -99.90      -99.90      -99.90      -99.90      -99.90      -99.90      -99.90      -99.90    
       -99.90      -99.90      -99.90      -99.90      -99.90      -99.90      -99.90      -99.90      -99.90      -99.90    
       -99.90      -99.90      -99.90      -99.90      -99.90      -99.90      -99.90      -99.90      -99.90      -99.90    
       -99.90      -99.90      -99.90      -99.90      -99.90      -99.90      -99.90      -99.90      -99.90      -99.90    
  12   -99.90      -99.90      -99.90      -99.90      -99.90      -99.90      -99.90      -99.90      -99.90      -99.90    
       -99.90      -99.90      -99.90      -99.90      -99.90      -99.90      -99.90      -99.90      -99.90      -99.90    
       -99.90      -99.90      -99.90      -99.90      -99.90      -99.90      -99.90      -99.90      -99.90      -99.90    
       -99.90      -99.90      -99.90      -99.90      -99.90      -99.90      -99.90      -99.90      -99.90      -99.90    
  13   -99.90      -99.90      -99.90      -99.90      -99.90      -99.90      -99.90      -99.90      -99.90      -99.90    
       -99.90      -99.90      -99.90      -99.90      -99.90      -99.90      -99.90      -99.90      -99.90      -99.90    
       -99.90      -99.90      -99.90      -99.90      -99.90      -99.90      -99.90      -99.90      -99.90      -99.90    
       -99.90      -99.90      -99.90      -99.90      -99.90      -99.90      -99.90      -99.90      -99.90      -99.90    
  14   -99.90      -99.90      -99.90      -99.90      -99.90      -99.90      -99.90      -99.90      -99.90      -99.90    
       -99.90      -99.90      -99.90      -99.90      -99.90      -99.90      -99.90      -99.90      -99.90      -99.90    
       -99.90      -99.90      -99.90      -99.90      -99.90      -99.90      -99.90      -99.90      -99.90      -99.90    
       -99.90      -99.90      -99.90      -99.90      -99.90      -99.90      -99.90      -99.90      -99.90      -99.90    
  15   -99.90      -99.90      -99.90      -99.90      -99.90      -99.90      -99.90      -99.90      -99.90      -99.90    
       -99.90      -99.90      -99.90      -99.90      -99.90      -99.90      -99.90      -99.90      -99.90      -99.90    
       -99.90      -99.90      -99.90      -99.90      -99.90      -99.90      -99.90      -99.90      -99.90      -99.90    
       -99.90      -99.90      -99.90      -99.90      -99.90      -99.90      -99.90      -99.90      -99.90      -99.90    
  16   -99.90      -99.90      -99.90      -99.90      -99.90      -99.90      -99.90      -99.90      -99.90      -99.90    
       -99.90      -99.90      -99.90      -99.90      -99.90      -99.90      -99.90      -99.90      -99.90      -99.90    
       -99.90      -99.90      -99.90      -99.90      -99.90      -99.90      -99.90      -99.90      -99.90      -99.90    
       -99.90      -99.90      -99.90      -99.90      -99.90      -99.90      -99.90      -99.90      -99.90      -99.90    
  17   -99.90      -99.90      -99.90      -99.90      -99.90      -99.90      -99.90      -99.90      -99.90      -99.90    
       -99.90      -99.90      -99.90      -99.90      -99.90      -99.90      -99.90      -99.90      -99.90      -99.90    
       -99.90      -99.90      -99.90      -99.90      -99.90      -99.90      -99.90      -99.90      -99.90      -99.90    
       -99.90      -99.90      -99.90      -99.90      -99.90      -99.90      -99.90      -99.90      -99.90      -99.90    
  18   -99.90      -99.90      -99.90      -99.90      -99.90      -99.90      -99.90      -99.90      -99.90      -99.90    
       -99.90      -99.90      -99.90      -99.90      -99.90      -99.90      -99.90      -99.90      -99.90      -99.90    
       -99.90      -99.90      -99.90      -99.90      -99.90      -99.90      -99.90      -99.90      -99.90      -99.90    
       -99.90      -99.90      -99.90      -99.90      -99.90      -99.90      -99.90      -99.90      -99.90      -99.90    
  19   -99.90      -99.90      -99.90      -99.90      -99.90      -99.90      -99.90      -99.90      -99.90      -99.90    
       -99.90      -99.90      -99.90      -99.90      -99.90      -99.90      -99.90      -99.90      -99.90      -99.90    
       -99.90      -99.90      -99.90      -99.90      -99.90      -99.90      -99.90      -99.90      -99.90      -99.90    
       -99.90      -99.90      -99.90      -99.90      -99.90      -99.90      -99.90      -99.90      -99.90      -99.90    
  20   -99.90      -99.90      -99.90      -99.90      -99.90      -99.90      -99.90      -99.90      -99.90      -99.90    
       -99.90      -99.90      -99.90      -99.90      -99.90      -99.90      -99.90      -99.90      -99.90      -99.90    
       -99.90      -99.90      -99.90      -99.90      -99.90      -99.90      -99.90      -99.90      -99.90      -99.90    
       -99.90      -99.90      -99.90      -99.90      -99.90      -99.90      -99.90      -99.90      -99.90      -99.90    
  21   -99.90      -99.90      -99.90      -99.90      -99.90      -99.90      -99.90      -99.90      -99.90      -99.90    
       -99.90      -99.90      -99.90      -99.90      -99.90      -99.90      -99.90      -99.90      -99.90      -99.90    
       -99.90      -99.90      -99.90      -99.90      -99.90      -99.90      -99.90      -99.90      -99.90      -99.90    
       -99.90      -99.90      -99.90      -99.90      -99.90      -99.90      -99.90      -99.90      -99.90      -99.90    
  22   -99.90      -99.90      -99.90      -99.90      -99.90      -99.90      -99.90      -99.90      -99.90      -99.90    
       -99.90      -99.90      -99.90      -99.90      -99.90      -99.90      -99.90      -99.90      -99.90      -99.90    
       -99.90      -99.90      -99.90      -99.90      -99.90      -99.90      -99.90      -99.90      -99.90      -99.90    
       -99.90      -99.90      -99.90      -99.90      -99.90      -99.90      -99.90      -99.90      -99.90      -99.90    
  23   -99.90      -99.90      -99.90      -99.90      -99.90      -99.90      -99.90      -99.90      -99.90      -99.90    
       -99.90      -99.90      -99.90      -99.90      -99.90      -99.90      -99.90      -99.90      -99.90      -99.90    
       -99.90      -99.90      -99.90      -99.90      -99.90      -99.90      -99.90      -99.90      -99.90      -99.90    
       -99.90      -99.90      -99.90      -99.90      -99.90      -99.90      -99.90      -99.90      -99.90      -99.90    
  24   -99.90      -99.90      -99.90      -99.90      -99.90      -99.90      -99.90      -99.90      -99.90      -99.90    
       -99.90      -99.90      -99.90      -99.90      -99.90      -99.90      -99.90      -99.90      -99.90      -99.90    
       -99.90      -99.90      -99.90      -99.90      -99.90      -99.90      -99.90      -99.90      -99.90      -99.90    
       -99.90      -99.90      -99.90      -99.90      -99.90      -99.90      -99.90      -99.90      -99.90      -99.90    
  25   -99.90      -99.90      -99.90      -99.90      -99.90      -99.90      -99.90      -99.90      -99.90      -99.90    
       -99.90      -99.90      -99.90      -99.90      -99.90      -99.90      -99.90      -99.90      -99.90      -99.90    
       -99.90      -99.90      -99.90      -99.90      -99.90      -99.90      -99.90      -99.90      -99.90      -99.90    
       -99.90      -99.90      -99.90      -99.90      -99.90      -99.90      -99.90      -99.90      -99.90      -99.90    
  26   -99.90      -99.90      -99.90      -99.90      -99.90      -99.90      -99.90      -99.90      -99.90      -99.90    
       -99.90      -99.90      -99.90      -99.90      -99.90      -99.90      -99.90      -99.90      -99.90      -99.90    
       -99.90      -99.90      -99.90      -99.90      -99.90      -99.90      -99.90      -99.90      -99.90      -99.90    
       -99.90      -99.90      -99.90      -99.90      -99.90      -99.90      -99.90      -99.90      -99.90      -99.90    
  27   -99.90      -99.90      -99.90      -99.90      -99.90      -99.90      -99.90      -99.90      -99.90      -99.90    
       -99.90      -99.90      -99.90      -99.90      -99.90      -99.90      -99.90      -99.90      -99.90      -99.90    
       -99.90      -99.90      -99.90      -99.90      -99.90      -99.90      -99.90      -99.90      -99.90      -99.90    
       -99.90      -99.90      -99.90      -99.90      -99.90      -99.90      -99.90      -99.90      -99.90      -99.90    
  28   -99.90      -99.90      -99.90      -99.90      -99.90      -99.90      -99.90      -99.90      -99.90      -99.90    
       -99.90      -99.90      -99.90      -99.90      -99.90      -99.90      -99.90      -99.90      -99.90      -99.90    
       -99.90      -99.90      -99.90      -99.90      -99.90      -99.90      -99.90      -99.90      -99.90      -99.90    
       -99.90      -99.90      -99.90      -99.90      -99.90      -99.90      -99.90      -99.90      -99.90      -99.90    
  29   -99.90      -99.90      -99.90      -99.90      -99.90      -99.90      -99.90      -99.90      -99.90      -99.90    
       -99.90      -99.90      -99.90      -99.90      -99.90      -99.90      -99.90      -99.90      -99.90      -99.90    
       -99.90      -99.90      -99.90      -99.90      -99.90      -99.90      -99.90      -99.90      -99.90      -99.90    
       -99.90      -99.90      -99.90      -99.90      -99.90      -99.90      -99.90      -99.90      -99.90      -99.90    
  30   -99.90      -99.90      -99.90      -99.90      -99.90      -99.90      -99.90      -99.90      -99.90      -99.90    
       -99.90      -99.90      -99.90      -99.90      -99.90      -99.90      -99.90      -99.90      -99.90      -99.90    
       -99.90      -99.90      -99.90      -99.90      -99.90      -99.90      -99.90      -99.90      -99.90      -99.90    
       -99.90      -99.90      -99.90      -99.90      -99.90      -99.90      -99.90      -99.90      -99.90      -99.90    
  31   -99.90      -99.90      -99.90      -99.90      -99.90      -99.90      -99.90      -99.90      -99.90      -99.90    
       -99.90      -99.90      -99.90      -99.90      -99.90      -99.90      -99.90      -99.90      -99.90      -99.90    
       -99.90      -99.90      -99.90      -99.90      -99.90      -99.90      -99.90      -99.90      -99.90      -99.90    
       -99.90      -99.90      -99.90      -99.90      -99.90      -99.90      -99.90      -99.90      -99.90      -99.90    
  32   -99.90      -99.90      -99.90      -99.90      -99.90      -99.90      -99.90      -99.90      -99.90      -99.90    
       -99.90      -99.90      -99.90      -99.90      -99.90      -99.90      -99.90      -99.90      -99.90      -99.90    
       -99.90      -99.90      -99.90      -99.90      -99.90      -99.90      -99.90      -99.90      -99.90      -99.90    
       -99.90      -99.90      -99.90      -99.90      -99.90      -99.90      -99.90      -99.90      -99.90      -99.90    
  33   -99.90      -99.90      -99.90      -99.90      -99.90      -99.90      -99.90      -99.90      -99.90      -99.90    
       -99.90      -99.90      -99.90      -99.90      -99.90      -99.90      -99.90      -99.90      -99.90      -99.90    
       -99.90      -99.90      -99.90      -99.90      -99.90      -99.90      -99.90      -99.90      -99.90      -99.90    
       -99.90      -99.90      -99.90      -99.90      -99.90      -99.90      -99.90      -99.90      -99.90      -99.90    
  34   -99.90      -99.90      -99.90      -99.90      -99.90      -99.90      -99.90      -99.90      -99.90      -99.90    
       -99.90      -99.90      -99.90      -99.90      -99.90      -99.90      -99.90      -99.90      -99.90      -99.90    
       -99.90      -99.90      -99.90      -99.90      -99.90      -99.90      -99.90      -99.90      -99.90      -99.90    
       -99.90      -99.90      -99.90      -99.90      -99.90      -99.90      -99.90      -99.90      -99.90      -99.90    
  35   -99.90      -99.90      -99.90      -99.90      -99.90      -99.90      -99.90      -99.90      -99.90      -99.90    
       -99.90      -99.90      -99.90      -99.90      -99.90      -99.90      -99.90      -99.90      -99.90      -99.90    
       -99.90      -99.90      -99.90      -99.90      -99.90      -99.90      -99.90      -99.90      -99.90      -99.90    
       -99.90      -99.90      -99.90      -99.90      -99.90      -99.90      -99.90      -99.90      -99.90      -99.90    
  36   -99.90      -99.90      -99.90      -99.90      -99.90      -99.90      -99.90      -99.90      -99.90      -99.90    
       -99.90      -99.90      -99.90      -99.90      -99.90      -99.90      -99.90      -99.90      -99.90      -99.90    
       -99.90      -99.90      -99.90      -99.90      -99.90      -99.90      -99.90      -99.90      -99.90      -99.90    
       -99.90      -99.90      -99.90      -99.90      -99.90      -99.90      -99.90      -99.90      -99.90      -99.90    
  37   -99.90      -99.90      -99.90      -99.90      -99.90      -99.90      -99.90      -99.90      -99.90      -99.90    
       -99.90      -99.90      -99.90      -99.90      -99.90      -99.90      -99.90      -99.90      -99.90      -99.90    
       -99.90      -99.90      -99.90      -99.90      -99.90      -99.90      -99.90      -99.90      -99.90      -99.90    
       -99.90      -99.90      -99.90      -99.90      -99.90      -99.90      -99.90      -99.90      -99.90      -99.90    
  38   -99.90      -99.90      -99.90      -99.90      -99.90      -99.90      -99.90      -99.90      -99.90      -99.90    
       -99.90      -99.90      -99.90      -99.90      -99.90      -99.90      -99.90      -99.90      -99.90      -99.90    
       -99.90      -99.90      -99.90      -99.90      -99.90      -99.90      -99.90      -99.90      -99.90      -99.90    
       -99.90      -99.90      -99.90      -99.90      -99.90      -99.90      -99.90      -99.90      -99.90      -99.90    
  39   -99.90      -99.90      -99.90      -99.90      -99.90      -99.90      -99.90      -99.90      -99.90      -99.90    
       -99.90      -99.90      -99.90      -99.90      -99.90      -99.90      -99.90      -99.90      -99.90      -99.90    
       -99.90      -99.90      -99.90      -99.90      -99.90      -99.90      -99.90      -99.90      -99.90      -99.90    
       -99.90      -99.90      -99.90      -99.90      -99.90      -99.90      -99.90      -99.90      -99.90      -99.90    
  40   -99.90      -99.90      -99.90      -99.90      -99.90      -99.90      -99.90      -99.90      -99.90      -99.90    
       -99.90      -99.90      -99.90      -99.90      -99.90      -99.90      -99.90      -99.90      -99.90      -99.90    
       -99.90      -99.90      -99.90      -99.90      -99.90      -99.90      -99.90      -99.90      -99.90      -99.90    
       -99.90      -99.90      -99.90      -99.90      -99.90      -99.90      -99.90      -99.90      -99.90      -99.90    
1
              HEAD IN LAYER 2 AT END OF TIME STEP 1 IN STRESS PERIOD 1
  ---------------------------------------------------------------------------

            1           2           3           4           5           6           7           8           9          10
           11          12          13          14          15          16          17          18          19          20
           21          22          23          24          25          26          27          28          29          30
           31          32          33          34          35          36          37          38          39          40
 ........................................................................................................................
   1   -99.90      -99.90      -99.90      -99.90      -99.90      -99.90      -99.90      -99.90      -99.90      -99.90    
       -99.90      -99.90      -99.90      -99.90      -99.90      -99.90      -99.90      -99.90      -99.90      -99.90    
       -99.90      -99.90      -99.90      -99.90      -99.90      -99.90      -99.90      -99.90      -99.90      -99.90    
       -99.90      -99.90      -99.90      -99.90      -99.90      -99.90      -99.90      -99.90      -99.90      -99.90    
   2   -99.90      -99.90      -99.90      -99.90      -99.90      -99.90      -99.90      -99.90      -99.90      -99.90    
       -99.90      -99.90      -99.90      -99.90      -99.90      -99.90      -99.90      -99.90      -99.90      -99.90    
       -99.90      -99.90      -99.90      -99.90      -99.90      -99.90      -99.90      -99.90      -99.90      -99.90    
       -99.90      -99.90      -99.90      -99.90      -99.90      -99.90      -99.90      -99.90      -99.90      -99.90    
   3   -99.90      -99.90      -99.90      -99.90      -99.90      -99.90      -99.90      -99.90      -99.90      -99.90    
       -99.90      -99.90      -99.90      -99.90      -99.90      -99.90      -99.90      -99.90      -99.90      -99.90    
       -99.90      -99.90      -99.90      -99.90      -99.90      -99.90      -99.90      -99.90      -99.90      -99.90    
       -99.90      -99.90      -99.90      -99.90      -99.90      -99.90      -99.90      -99.90      -99.90      -99.90    
   4   -99.90      -99.90      -99.90      -99.90      -99.90      -99.90      -99.90      -99.90      -99.90      -99.90    
       -99.90      -99.90      -99.90      -99.90      -99.90      -99.90      -99.90      -99.90      -99.90      -99.90    
       -99.90      -99.90      -99.90      -99.90      -99.90      -99.90      -99.90      -99.90      -99.90      -99.90    
       -99.90      -99.90      -99.90      -99.90      -99.90      -99.90      -99.90      -99.90      -99.90      -99.90    
   5   -99.90      -99.90      -99.90      -99.90      -99.90      -99.90      -99.90      -99.90      -99.90      -99.90    
       -99.90      -99.90      -99.90      -99.90      -99.90      -99.90      -99.90      -99.90      -99.90      -99.90    
       -99.90      -99.90      -99.90      -99.90      -99.90      -99.90      -99.90      -99.90      -99.90      -99.90    
       -99.90      -99.90      -99.90      -99.90      -99.90      -99.90      -99.90      -99.90      -99.90      -99.90    
   6   -99.90      -99.90      -99.90      -99.90      -99.90      -99.90      -99.90      -99.90      -99.90      -99.90    
       -99.90      -99.90      -99.90      -99.90      -99.90      -99.90      -99.90      -99.90      -99.90      -99.90    
       -99.90      -99.90      -99.90      -99.90      -99.90      -99.90      -99.90      -99.90      -99.90      -99.90    
       -99.90      -99.90      -99.90      -99.90      -99.90      -99.90      -99.90      -99.90      -99.90      -99.90    
   7   -99.90      -99.90      -99.90      -99.90      -99.90      -99.90      -99.90      -99.90      -99.90      -99.90    
       -99.90      -99.90      -99.90      -99.90      -99.90      -99.90      -99.90      -99.90      -99.90      -99.90    
       -99.90      -99.90      -99.90      -99.90      -99.90      -99.90      -99.90      -99.90      -99.90      -99.90    
       -99.90      -99.90      -99.90      -99.90      -99.90      -99.90      -99.90      -99.90      -99.90      -99.90    
   8   -99.90      -99.90      -99.90      -99.90      -99.90      -99.90      -99.90      -99.90      -99.90      -99.90    
       -99.90      -99.90      -99.90      -99.90      -99.90      -99.90      -99.90      -99.90      -99.90      -99.90    
       -99.90      -99.90      -99.90      -99.90      -99.90      -99.90      -99.90      -99.90      -99.90      -99.90    
       -99.90      -99.90      -99.90      -99.90      -99.90      -99.90      -99.90      -99.90      -99.90      -99.90    
   9   -99.90      -99.90      -99.90      -99.90      -99.90      -99.90      -99.90      -99.90      -99.90      -99.90    
       -99.90      -99.90      -99.90      -99.90      -99.90      -99.90      -99.90      -99.90      -99.90      -99.90    
       -99.90      -99.90      -99.90      -99.90      -99.90      -99.90      -99.90      -99.90      -99.90      -99.90    
       -99.90      -99.90      -99.90      -99.90      -99.90      -99.90      -99.90      -99.90      -99.90      -99.90    
  10   -99.90      -99.90      -99.90      -99.90      -99.90      -99.90      -99.90      -99.90      -99.90      -99.90    
       -99.90      -99.90      -99.90      -99.90      -99.90      -99.90      -99.90      -99.90      -99.90      -99.90    
       -99.90      -99.90      -99.90      -99.90      -99.90      -99.90      -99.90      -99.90      -99.90      -99.90    
       -99.90      -99.90      -99.90      -99.90      -99.90      -99.90      -99.90      -99.90      -99.90      -99.90    
  11   -99.90      -99.90      -99.90      -99.90      -99.90      -99.90      -99.90      -99.90      -99.90      -99.90    
       -99.90      -99.90      -99.90      -99.90      -99.90      -99.90      -99.90      -99.90      -99.90      -99.90    
       -99.90      -99.90      -99.90      -99.90      -99.90      -99.90      -99.90      -99.90      -99.90      -99.90    
       -99.90      -99.90      -99.90      -99.90      -99.90      -99.90      -99.90      -99.90      -99.90      -99.90    
  12   -99.90      -99.90      -99.90      -99.90      -99.90      -99.90      -99.90      -99.90      -99.90      -99.90    
       -99.90      -99.90      -99.90      -99.90      -99.90      -99.90      -99.90      -99.90      -99.90      -99.90    
       -99.90      -99.90      -99.90      -99.90      -99.90      -99.90      -99.90      -99.90      -99.90      -99.90    
       -99.90      -99.90      -99.90      -99.90      -99.90      -99.90      -99.90      -99.90      -99.90      -99.90    
  13   -99.90      -99.90      -99.90      -99.90      -99.90      -99.90      -99.90      -99.90      -99.90      -99.90    
       -99.90      -99.90      -99.90      -99.90      -99.90      -99.90      -99.90      -99.90      -99.90      -99.90    
       -99.90      -99.90      -99.90      -99.90      -99.90      -99.90      -99.90      -99.90      -99.90      -99.90    
       -99.90      -99.90      -99.90      -99.90      -99.90      -99.90      -99.90      -99.90      -99.90      -99.90    
  14   -99.90      -99.90      -99.90      -99.90      -99.90      -99.90      -99.90      -99.90      -99.90      -99.90    
       -99.90      -99.90      -99.90      -99.90      -99.90      -99.90      -99.90      -99.90      -99.90      -99.90    
       -99.90      -99.90      -99.90      -99.90      -99.90      -99.90      -99.90      -99.90      -99.90      -99.90    
       -99.90      -99.90      -99.90      -99.90      -99.90      -99.90      -99.90      -99.90      -99.90      -99.90    
  15   -99.90      -99.90      -99.90      -99.90      -99.90      -99.90      -99.90      -99.90      -99.90      -99.90    
       -99.90      -99.90      -99.90      -99.90      -99.90      -99.90      -99.90      -99.90      -99.90      -99.90    
       -99.90      -99.90      -99.90      -99.90      -99.90      -99.90      -99.90      -99.90      -99.90      -99.90    
       -99.90      -99.90      -99.90      -99.90      -99.90      -99.90      -99.90      -99.90      -99.90      -99.90    
  16   -99.90      -99.90      -99.90      -99.90      -99.90      -99.90      -99.90      -99.90      -99.90      -99.90    
       -99.90      -99.90      -99.90      -99.90      -99.90      -99.90      -99.90      -99.90      -99.90      -99.90    
       -99.90      -99.90      -99.90      -99.90      -99.90      -99.90      -99.90      -99.90      -99.90      -99.90    
       -99.90      -99.90      -99.90      -99.90      -99.90      -99.90      -99.90      -99.90      -99.90      -99.90    
  17   -99.90      -99.90      -99.90      -99.90      -99.90      -99.90      -99.90      -99.90      -99.90      -99.90    
       -99.90      -99.90      -99.90      -99.90      -99.90      -99.90      -99.90      -99.90      -99.90      -99.90    
       -99.90      -99.90      -99.90      -99.90      -99.90      -99.90      -99.90      -99.90      -99.90      -99.90    
       -99.90      -99.90      -99.90      -99.90      -99.90      -99.90      -99.90      -99.90      -99.90      -99.90    
  18   -99.90      -99.90      -99.90      -99.90      -99.90      -99.90      -99.90      -99.90      -99.90      -99.90    
       -99.90      -99.90      -99.90      -99.90      -99.90      -99.90      -99.90      -99.90      -99.90      -99.90    
       -99.90      -99.90      -99.90      -99.90      -99.90      -99.90      -99.90      -99.90      -99.90      -99.90    
       -99.90      -99.90      -99.90      -99.90      -99.90      -99.90      -99.90      -99.90      -99.90      -99.90    
  19   -99.90      -99.90      -99.90      -99.90      -99.90      -99.90      -99.90      -99.90      -99.90      -99.90    
       -99.90      -99.90      -99.90      -99.90      -99.90      -99.90      -99.90      -99.90      -99.90      -99.90    
       -99.90      -99.90      -99.90      -99.90      -99.90      -99.90      -99.90      -99.90      -99.90      -99.90    
       -99.90      -99.90      -99.90      -99.90      -99.90      -99.90      -99.90      -99.90      -99.90      -99.90    
  20   -99.90      -99.90      -99.90      -99.90      -99.90      -99.90      -99.90      -99.90      -99.90      -99.90    
       -99.90      -99.90      -99.90      -99.90      -99.90      -99.90      -99.90      -99.90      -99.90      -99.90    
       -99.90      -99.90      -99.90      -99.90      -99.90      -99.90      -99.90      -99.90      -99.90      -99.90    
       -99.90      -99.90      -99.90      -99.90      -99.90      -99.90      -99.90      -99.90      -99.90      -99.90    
  21   -99.90      -99.90      -99.90      -99.90      -99.90      -99.90      -99.90      -99.90      -99.90      -99.90    
       -99.90      -99.90      -99.90      -99.90      -99.90      -99.90      -99.90      -99.90      -99.90      -99.90    
       -99.90      -99.90      -99.90      -99.90      -99.90      -99.90      -99.90      -99.90      -99.90      -99.90    
       -99.90      -99.90      -99.90      -99.90      -99.90      -99.90      -99.90      -99.90      -99.90      -99.90    
  22   -99.90      -99.90      -99.90      -99.90      -99.90      -99.90      -99.90      -99.90      -99.90      -99.90    
       -99.90      -99.90      -99.90      -99.90      -99.90      -99.90      -99.90      -99.90      -99.90      -99.90    
       -99.90      -99.90      -99.90      -99.90      -99.90      -99.90      -99.90      -99.90      -99.90      -99.90    
       -99.90      -99.90      -99.90      -99.90      -99.90      -99.90      -99.90      -99.90      -99.90      -99.90    
  23   -99.90      -99.90      -99.90      -99.90      -99.90      -99.90      -99.90      -99.90      -99.90      -99.90    
       -99.90      -99.90      -99.90      -99.90      -99.90      -99.90      -99.90      -99.90      -99.90      -99.90    
       -99.90      -99.90      -99.90      -99.90      -99.90      -99.90      -99.90      -99.90      -99.90      -99.90    
       -99.90      -99.90      -99.90      -99.90      -99.90      -99.90      -99.90      -99.90      -99.90      -99.90    
  24   -99.90      -99.90      -99.90      -99.90      -99.90      -99.90      -99.90      -99.90      -99.90      -99.90    
       -99.90      -99.90      -99.90      -99.90      -99.90      -99.90      -99.90      -99.90      -99.90      -99.90    
       -99.90      -99.90      -99.90      -99.90      -99.90      -99.90      -99.90      -99.90      -99.90      -99.90    
       -99.90      -99.90      -99.90      -99.90      -99.90      -99.90      -99.90      -99.90      -99.90      -99.90    
  25   -99.90      -99.90      -99.90      -99.90      -99.90      -99.90      -99.90      -99.90      -99.90      -99.90    
       -99.90      -99.90      -99.90      -99.90      -99.90      -99.90      -99.90      -99.90      -99.90      -99.90    
       -99.90      -99.90      -99.90      -99.90      -99.90      -99.90      -99.90      -99.90      -99.90      -99.90    
       -99.90      -99.90      -99.90      -99.90      -99.90      -99.90      -99.90      -99.90      -99.90      -99.90    
  26   -99.90      -99.90      -99.90      -99.90      -99.90      -99.90      -99.90      -99.90      -99.90      -99.90    
       -99.90      -99.90      -99.90      -99.90      -99.90      -99.90      -99.90      -99.90      -99.90      -99.90    
       -99.90      -99.90      -99.90      -99.90      -99.90      -99.90      -99.90      -99.90      -99.90      -99.90    
       -99.90      -99.90      -99.90      -99.90      -99.90      -99.90      -99.90      -99.90      -99.90      -99.90    
  27   -99.90      -99.90      -99.90      -99.90      -99.90      -99.90      -99.90      -99.90      -99.90      -99.90    
       -99.90      -99.90      -99.90      -99.90      -99.90      -99.90      -99.90      -99.90      -99.90      -99.90    
       -99.90      -99.90      -99.90      -99.90      -99.90      -99.90      -99.90      -99.90      -99.90      -99.90    
       -99.90      -99.90      -99.90      -99.90      -99.90      -99.90      -99.90      -99.90      -99.90      -99.90    
  28   -99.90      -99.90      -99.90      -99.90      -99.90      -99.90      -99.90      -99.90      -99.90      -99.90    
       -99.90      -99.90      -99.90      -99.90      -99.90      -99.90      -99.90      -99.90      -99.90      -99.90    
       -99.90      -99.90      -99.90      -99.90      -99.90      -99.90      -99.90      -99.90      -99.90      -99.90    
       -99.90      -99.90      -99.90      -99.90      -99.90      -99.90      -99.90      -99.90      -99.90      -99.90    
  29   -99.90      -99.90      -99.90      -99.90      -99.90      -99.90      -99.90      -99.90      -99.90      -99.90    
       -99.90      -99.90      -99.90      -99.90      -99.90      -99.90      -99.90      -99.90      -99.90      -99.90    
       -99.90      -99.90      -99.90      -99.90      -99.90      -99.90      -99.90      -99.90      -99.90      -99.90    
       -99.90      -99.90      -99.90      -99.90      -99.90      -99.90      -99.90      -99.90      -99.90      -99.90    
  30   -99.90      -99.90      -99.90      -99.90      -99.90      -99.90      -99.90      -99.90      -99.90      -99.90    
       -99.90      -99.90      -99.90      -99.90      -99.90      -99.90      -99.90      -99.90      -99.90      -99.90    
       -99.90      -99.90      -99.90      -99.90      -99.90      -99.90      -99.90      -99.90      -99.90      -99.90    
       -99.90      -99.90      -99.90      -99.90      -99.90      -99.90      -99.90      -99.90      -99.90      -99.90    
  31   -99.90      -99.90      -99.90      -99.90      -99.90      -99.90      -99.90      -99.90      -99.90      -99.90    
       -99.90      -99.90      -99.90      -99.90      -99.90      -99.90      -99.90      -99.90      -99.90      -99.90    
       -99.90      -99.90      -99.90      -99.90      -99.90      -99.90      -99.90      -99.90      -99.90      -99.90    
       -99.90      -99.90      -99.90      -99.90      -99.90      -99.90      -99.90      -99.90      -99.90      -99.90    
  32   -99.90      -99.90      -99.90      -99.90      -99.90      -99.90      -99.90      -99.90      -99.90      -99.90    
       -99.90      -99.90      -99.90      -99.90      -99.90      -99.90      -99.90      -99.90      -99.90      -99.90    
       -99.90      -99.90      -99.90      -99.90      -99.90      -99.90      -99.90      -99.90      -99.90      -99.90    
       -99.90      -99.90      -99.90      -99.90      -99.90      -99.90      -99.90      -99.90      -99.90      -99.90    
  33   -99.90      -99.90      -99.90      -99.90      -99.90      -99.90      -99.90      -99.90      -99.90      -99.90    
       -99.90      -99.90      -99.90      -99.90      -99.90      -99.90      -99.90      -99.90      -99.90      -99.90    
       -99.90      -99.90      -99.90      -99.90      -99.90      -99.90      -99.90      -99.90      -99.90      -99.90    
       -99.90      -99.90      -99.90      -99.90      -99.90      -99.90      -99.90      -99.90      -99.90      -99.90    
  34   -99.90      -99.90      -99.90      -99.90      -99.90      -99.90      -99.90      -99.90      -99.90      -99.90    
       -99.90      -99.90      -99.90      -99.90      -99.90      -99.90      -99.90      -99.90      -99.90      -99.90    
       -99.90      -99.90      -99.90      -99.90      -99.90      -99.90      -99.90      -99.90      -99.90      -99.90    
       -99.90      -99.90      -99.90      -99.90      -99.90      -99.90      -99.90      -99.90      -99.90      -99.90    
  35   -99.90      -99.90      -99.90      -99.90      -99.90      -99.90      -99.90      -99.90      -99.90      -99.90    
       -99.90      -99.90      -99.90      -99.90      -99.90      -99.90      -99.90      -99.90      -99.90      -99.90    
       -99.90      -99.90      -99.90      -99.90      -99.90      -99.90      -99.90      -99.90      -99.90      -99.90    
       -99.90      -99.90      -99.90      -99.90      -99.90      -99.90      -99.90      -99.90      -99.90      -99.90    
  36   -99.90      -99.90      -99.90      -99.90      -99.90      -99.90      -99.90      -99.90      -99.90      -99.90    
       -99.90      -99.90      -99.90      -99.90      -99.90      -99.90      -99.90      -99.90      -99.90      -99.90    
       -99.90      -99.90      -99.90      -99.90      -99.90      -99.90      -99.90      -99.90      -99.90      -99.90    
       -99.90      -99.90      -99.90      -99.90      -99.90      -99.90      -99.90      -99.90      -99.90      -99.90    
  37   -99.90      -99.90      -99.90      -99.90      -99.90      -99.90      -99.90      -99.90      -99.90      -99.90    
       -99.90      -99.90      -99.90      -99.90      -99.90      -99.90      -99.90      -99.90      -99.90      -99.90    
       -99.90      -99.90      -99.90      -99.90      -99.90      -99.90      -99.90      -99.90      -99.90      -99.90    
       -99.90      -99.90      -99.90      -99.90      -99.90      -99.90      -99.90      -99.90      -99.90      -99.90    
  38   -99.90      -99.90      -99.90      -99.90      -99.90      -99.90      -99.90      -99.90      -99.90      -99.90    
       -99.90      -99.90      -99.90      -99.90      -99.90      -99.90      -99.90      -99.90      -99.90      -99.90    
       -99.90      -99.90      -99.90      -99.90      -99.90      -99.90      -99.90      -99.90      -99.90      -99.90    
       -99.90      -99.90      -99.90      -99.90      -99.90      -99.90      -99.90      -99.90      -99.90      -99.90    
  39   -99.90      -99.90      -99.90      -99.90      -99.90      -99.90      -99.90      -99.90      -99.90      -99.90    
       -99.90      -99.90      -99.90      -99.90      -99.90      -99.90      -99.90      -99.90      -99.90      -99.90    
       -99.90      -99.90      -99.90      -99.90      -99.90      -99.90      -99.90      -99.90      -99.90      -99.90    
       -99.90      -99.90      -99.90      -99.90      -99.90      -99.90      -99.90      -99.90      -99.90      -99.90    
  40   -99.90      -99.90      -99.90      -99.90      -99.90      -99.90      -99.90      -99.90      -99.90      -99.90    
       -99.90      -99.90      -99.90      -99.90      -99.90      -99.90      -99.90      -99.90      -99.90      -99.90    
       -99.90      -99.90      -99.90      -99.90      -99.90      -99.90      -99.90      -99.90      -99.90      -99.90    
       -99.90      -99.90      -99.90      -99.90      -99.90      -99.90      -99.90      -99.90      -99.90      -99.90    
1
              HEAD IN LAYER 3 AT END OF TIME STEP 1 IN STRESS PERIOD 1
  ---------------------------------------------------------------------------

            1           2           3           4           5           6           7           8           9          10
           11          12          13          14          15          16          17          18          19          20
           21          22          23          24          25          26          27          28          29          30
           31          32          33          34          35          36          37          38          39          40
 ........................................................................................................................
   1   -99.90      -99.90      -99.90      -99.90      -99.90      -99.90      -99.90      -99.90      -99.90      -99.90    
       -99.90      -99.90      -99.90      -99.90      -99.90      -99.90      -99.90      -99.90      -99.90      -99.90    
       -99.90      -99.90      -99.90      -99.90      -99.90      -99.90      -99.90      -99.90      -99.90      -99.90    
       -99.90      -99.90      -99.90      -99.90      -99.90      -99.90      -99.90      -99.90      -99.90      -99.90    
   2   -99.90      -99.90      -99.90      -99.90      -99.90      -99.90      -99.90      -99.90      -99.90      -99.90    
       -99.90      -99.90      -99.90      -99.90      -99.90      -99.90      -99.90      -99.90      -99.90      -99.90    
       -99.90      -99.90      -99.90      -99.90      -99.90      -99.90      -99.90      -99.90      -99.90      -99.90    
       -99.90      -99.90      -99.90      -99.90      -99.90      -99.90      -99.90      -99.90      -99.90      -99.90    
   3   -99.90      -99.90      -99.90      -99.90      -99.90      -99.90      -99.90      -99.90      -99.90      -99.90    
       -99.90      -99.90      -99.90      -99.90      -99.90      -99.90      -99.90      -99.90      -99.90      -99.90    
       -99.90      -99.90      -99.90      -99.90      -99.90      -99.90      -99.90      -99.90      -99.90      -99.90    
       -99.90      -99.90      -99.90      -99.90      -99.90      -99.90      -99.90      -99.90      -99.90      -99.90    
   4   -99.90      -99.90      -99.90      -99.90      -99.90      -99.90      -99.90      -99.90      -99.90      -99.90    
       -99.90      -99.90      -99.90      -99.90      -99.90      -99.90      -99.90      -99.90      -99.90      -99.90    
       -99.90      -99.90      -99.90      -99.90      -99.90      -99.90      -99.90      -99.90      -99.90      -99.90    
       -99.90      -99.90      -99.90      -99.90      -99.90      -99.90      -99.90      -99.90      -99.90      -99.90    
   5   -99.90      -99.90      -99.90      -99.90      -99.90      -99.90      -99.90      -99.90      -99.90      -99.90    
       -99.90      -99.90      -99.90      -99.90      -99.90      -99.90      -99.90      -99.90      -99.90      -99.90    
       -99.90      -99.90      -99.90      -99.90      -99.90      -99.90      -99.90      -99.90      -99.90      -99.90    
       -99.90      -99.90      -99.90      -99.90      -99.90      -99.90      -99.90      -99.90      -99.90      -99.90    
   6   -99.90      -99.90      -99.90      -99.90      -99.90      -99.90      -99.90      -99.90      -99.90      -99.90    
       -99.90      -99.90      -99.90      -99.90      -99.90      -99.90      -99.90      -99.90      -99.90      -99.90    
       -99.90      -99.90      -99.90      -99.90      -99.90      -99.90      -99.90      -99.90      -99.90      -99.90    
       -99.90      -99.90      -99.90      -99.90      -99.90      -99.90      -99.90      -99.90      -99.90      -99.90    
   7   -99.90      -99.90      -99.90      -99.90      -99.90      -99.90      -99.90      -99.90      -99.90      -99.90    
       -99.90      -99.90      -99.90      -99.90      -99.90      -99.90      -99.90      -99.90      -99.90      -99.90    
       -99.90      -99.90      -99.90      -99.90      -99.90      -99.90      -99.90      -99.90      -99.90      -99.90    
       -99.90      -99.90      -99.90      -99.90      -99.90      -99.90      -99.90      -99.90      -99.90      -99.90    
   8   -99.90      -99.90      -99.90      -99.90      -99.90      -99.90      -99.90      -99.90      -99.90      -99.90    
       -99.90      -99.90      -99.90      -99.90      -99.90      -99.90      -99.90      -99.90      -99.90      -99.90    
       -99.90      -99.90      -99.90      -99.90      -99.90      -99.90      -99.90      -99.90      -99.90      -99.90    
       -99.90      -99.90      -99.90      -99.90      -99.90      -99.90      -99.90      -99.90      -99.90      -99.90    
   9   -99.90      -99.90      -99.90      -99.90      -99.90      -99.90      -99.90      -99.90      -99.90      -99.90    
       -99.90      -99.90      -99.90      -99.90      -99.90      -99.90      -99.90      -99.90      -99.90      -99.90    
       -99.90      -99.90      -99.90      -99.90      -99.90      -99.90      -99.90      -99.90      -99.90      -99.90    
       -99.90      -99.90      -99.90      -99.90      -99.90      -99.90      -99.90      -99.90      -99.90      -99.90    
  10   -99.90      -99.90      -99.90      -99.90      -99.90      -99.90      -99.90      -99.90      -99.90      -99.90    
       -99.90      -99.90      -99.90      -99.90      -99.90      -99.90      -99.90      -99.90      -99.90      -99.90    
       -99.90      -99.90      -99.90      -99.90      -99.90      -99.90      -99.90      -99.90      -99.90      -99.90    
       -99.90      -99.90      -99.90      -99.90      -99.90      -99.90      -99.90      -99.90      -99.90      -99.90    
  11   -99.90      -99.90      -99.90      -99.90      -99.90      -99.90      -99.90      -99.90      -99.90      -99.90    
       -99.90      -99.90      -99.90      -99.90      -99.90      -99.90      -99.90      -99.90      -99.90      -99.90    
       -99.90      -99.90      -99.90      -99.90      -99.90      -99.90      -99.90      -99.90      -99.90      -99.90    
       -99.90      -99.90      -99.90      -99.90      -99.90      -99.90      -99.90      -99.90      -99.90      -99.90    
  12   -99.90      -99.90      -99.90      -99.90      -99.90      -99.90      -99.90      -99.90      -99.90      -99.90    
       -99.90      -99.90      -99.90      -99.90      -99.90      -99.90      -99.90      -99.90      -99.90      -99.90    
       -99.90      -99.90      -99.90      -99.90      -99.90      -99.90      -99.90      -99.90      -99.90      -99.90    
       -99.90      -99.90      -99.90      -99.90      -99.90      -99.90      -99.90      -99.90      -99.90      -99.90    
  13   -99.90      -99.90      -99.90      -99.90      -99.90      -99.90      -99.90      -99.90      -99.90      -99.90    
       -99.90      -99.90      -99.90      -99.90      -99.90      -99.90      -99.90      -99.90      -99.90      -99.90    
       -99.90      -99.90      -99.90      -99.90      -99.90      -99.90      -99.90      -99.90      -99.90      -99.90    
       -99.90      -99.90      -99.90      -99.90      -99.90      -99.90      -99.90      -99.90      -99.90      -99.90    
  14   -99.90      -99.90      -99.90      -99.90      -99.90      -99.90      -99.90      -99.90      -99.90      -99.90    
       -99.90      -99.90      -99.90      -99.90      -99.90      -99.90      -99.90      -99.90      -99.90      -99.90    
       -99.90      -99.90      -99.90      -99.90      -99.90      -99.90      -99.90      -99.90      -99.90      -99.90    
       -99.90      -99.90      -99.90      -99.90      -99.90      -99.90      -99.90      -99.90      -99.90      -99.90    
  15   -99.90      -99.90      -99.90      -99.90      -99.90      -99.90      -99.90      -99.90      -99.90      -99.90    
       -99.90      -99.90      -99.90      -99.90      -99.90      -99.90      -99.90      -99.90      -99.90      -99.90    
       -99.90      -99.90      -99.90      -99.90      -99.90      -99.90      -99.90      -99.90      -99.90      -99.90    
       -99.90      -99.90      -99.90      -99.90      -99.90      -99.90      -99.90      -99.90      -99.90      -99.90    
  16   -99.90      -99.90      -99.90      -99.90      -99.90      -99.90      -99.90      -99.90      -99.90      -99.90    
       -99.90      -99.90      -99.90      -99.90      -99.90      -99.90      -99.90      -99.90      -99.90      -99.90    
       -99.90      -99.90      -99.90      -99.90      -99.90      -99.90      -99.90      -99.90      -99.90      -99.90    
       -99.90      -99.90      -99.90      -99.90      -99.90      -99.90      -99.90      -99.90      -99.90      -99.90    
  17   -99.90      -99.90      -99.90      -99.90      -99.90      -99.90      -99.90      -99.90      -99.90      -99.90    
       -99.90      -99.90      -99.90      -99.90      -99.90      -99.90      -99.90      -99.90      -99.90      -99.90    
       -99.90      -99.90      -99.90      -99.90      -99.90      -99.90      -99.90      -99.90      -99.90      -99.90    
       -99.90      -99.90      -99.90      -99.90      -99.90      -99.90      -99.90      -99.90      -99.90      -99.90    
  18   -99.90      -99.90      -99.90      -99.90      -99.90      -99.90      -99.90      -99.90      -99.90      -99.90    
       -99.90      -99.90      -99.90      -99.90      -99.90      -99.90      -99.90      -99.90      -99.90      -99.90    
       -99.90      -99.90      -99.90      -99.90      -99.90      -99.90      -99.90      -99.90      -99.90      -99.90    
       -99.90      -99.90      -99.90      -99.90      -99.90      -99.90      -99.90      -99.90      -99.90      -99.90    
  19   -99.90      -99.90      -99.90      -99.90      -99.90      -99.90      -99.90      -99.90      -99.90      -99.90    
       -99.90      -99.90      -99.90      -99.90      -99.90      -99.90      -99.90      -99.90      -99.90      -99.90    
       -99.90      -99.90      -99.90      -99.90      -99.90      -99.90      -99.90      -99.90      -99.90      -99.90    
       -99.90      -99.90      -99.90      -99.90      -99.90      -99.90      -99.90      -99.90      -99.90      -99.90    
  20   -99.90      -99.90      -99.90      -99.90      -99.90      -99.90      -99.90      -99.90      -99.90      -99.90    
       -99.90      -99.90      -99.90      -99.90      -99.90      -99.90      -99.90      -99.90      -99.90      -99.90    
       -99.90      -99.90      -99.90      -99.90      -99.90      -99.90      -99.90      -99.90      -99.90      -99.90    
       -99.90      -99.90      -99.90      -99.90      -99.90      -99.90      -99.90      -99.90      -99.90      -99.90    
  21   -99.90      -99.90      -99.90      -99.90      -99.90      -99.90      -99.90      -99.90      -99.90      -99.90    
       -99.90      -99.90      -99.90      -99.90      -99.90      -99.90      -99.90      -99.90      -99.90      -99.90    
       -99.90      -99.90      -99.90      -99.90      -99.90      -99.90      -99.90      -99.90      -99.90      -99.90    
       -99.90      -99.90      -99.90      -99.90      -99.90      -99.90      -99.90      -99.90      -99.90      -99.90    
  22   -99.90      -99.90      -99.90      -99.90      -99.90      -99.90      -99.90      -99.90      -99.90      -99.90    
       -99.90      -99.90      -99.90      -99.90      -99.90      -99.90      -99.90      -99.90      -99.90      -99.90    
       -99.90      -99.90      -99.90      -99.90      -99.90      -99.90      -99.90      -99.90      -99.90      -99.90    
       -99.90      -99.90      -99.90      -99.90      -99.90      -99.90      -99.90      -99.90      -99.90      -99.90    
  23   -99.90      -99.90      -99.90      -99.90      -99.90      -99.90      -99.90      -99.90      -99.90      -99.90    
       -99.90      -99.90      -99.90      -99.90      -99.90      -99.90      -99.90      -99.90      -99.90      -99.90    
       -99.90      -99.90      -99.90      -99.90      -99.90      -99.90      -99.90      -99.90      -99.90      -99.90    
       -99.90      -99.90      -99.90      -99.90      -99.90      -99.90      -99.90      -99.90      -99.90      -99.90    
  24   -99.90      -99.90      -99.90      -99.90      -99.90      -99.90      -99.90      -99.90      -99.90      -99.90    
       -99.90      -99.90      -99.90      -99.90      -99.90      -99.90      -99.90      -99.90      -99.90      -99.90    
       -99.90      -99.90      -99.90      -99.90      -99.90      -99.90      -99.90      -99.90      -99.90      -99.90    
       -99.90      -99.90      -99.90      -99.90      -99.90      -99.90      -99.90      -99.90      -99.90      -99.90    
  25   -99.90      -99.90      -99.90      -99.90      -99.90      -99.90      -99.90      -99.90      -99.90      -99.90    
       -99.90      -99.90      -99.90      -99.90      -99.90      -99.90      -99.90      -99.90      -99.90      -99.90    
       -99.90      -99.90      -99.90      -99.90      -99.90      -99.90      -99.90      -99.90      -99.90      -99.90    
       -99.90      -99.90      -99.90      -99.90      -99.90      -99.90      -99.90      -99.90      -99.90      -99.90    
  26   -99.90      -99.90      -99.90      -99.90      -99.90      -99.90      -99.90      -99.90      -99.90      -99.90    
       -99.90      -99.90      -99.90      -99.90      -99.90      -99.90      -99.90      -99.90      -99.90      -99.90    
       -99.90      -99.90      -99.90      -99.90      -99.90      -99.90      -99.90      -99.90      -99.90      -99.90    
       -99.90      -99.90      -99.90      -99.90      -99.90      -99.90      -99.90      -99.90      -99.90      -99.90    
  27   -99.90      -99.90      -99.90      -99.90      -99.90      -99.90      -99.90      -99.90      -99.90      -99.90    
       -99.90      -99.90      -99.90      -99.90      -99.90      -99.90      -99.90      -99.90      -99.90      -99.90    
       -99.90      -99.90      -99.90      -99.90      -99.90      -99.90      -99.90      -99.90      -99.90      -99.90    
       -99.90      -99.90      -99.90      -99.90      -99.90      -99.90      -99.90      -99.90      -99.90      -99.90    
  28   -99.90      -99.90      -99.90      -99.90      -99.90      -99.90      -99.90      -99.90      -99.90      -99.90    
       -99.90      -99.90      -99.90      -99.90      -99.90      -99.90      -99.90      -99.90      -99.90      -99.90    
       -99.90      -99.90      -99.90      -99.90      -99.90      -99.90      -99.90      -99.90      -99.90      -99.90    
       -99.90      -99.90      -99.90      -99.90      -99.90      -99.90      -99.90      -99.90      -99.90      -99.90    
  29   -99.90      -99.90      -99.90      -99.90      -99.90      -99.90      -99.90      -99.90      -99.90      -99.90    
       -99.90      -99.90      -99.90      -99.90      -99.90      -99.90      -99.90      -99.90      -99.90      -99.90    
       -99.90      -99.90      -99.90      -99.90      -99.90      -99.90      -99.90      -99.90      -99.90      -99.90    
       -99.90      -99.90      -99.90      -99.90      -99.90      -99.90      -99.90      -99.90      -99.90      -99.90    
  30   -99.90      -99.90      -99.90      -99.90      -99.90      -99.90      -99.90      -99.90      -99.90      -99.90    
       -99.90      -99.90      -99.90      -99.90      -99.90      -99.90      -99.90      -99.90      -99.90      -99.90    
       -99.90      -99.90      -99.90      -99.90      -99.90      -99.90      -99.90      -99.90      -99.90      -99.90    
       -99.90      -99.90      -99.90      -99.90      -99.90      -99.90      -99.90      -99.90      -99.90      -99.90    
  31   -99.90      -99.90      -99.90      -99.90      -99.90      -99.90      -99.90      -99.90      -99.90      -99.90    
       -99.90      -99.90      -99.90      -99.90      -99.90      -99.90      -99.90      -99.90      -99.90      -99.90    
       -99.90      -99.90      -99.90      -99.90      -99.90      -99.90      -99.90      -99.90      -99.90      -99.90    
       -99.90      -99.90      -99.90      -99.90      -99.90      -99.90      -99.90      -99.90      -99.90      -99.90    
  32   -99.90      -99.90      -99.90      -99.90      -99.90      -99.90      -99.90      -99.90      -99.90      -99.90    
       -99.90      -99.90      -99.90      -99.90      -99.90      -99.90      -99.90      -99.90      -99.90      -99.90    
       -99.90      -99.90      -99.90      -99.90      -99.90      -99.90      -99.90      -99.90      -99.90      -99.90    
       -99.90      -99.90      -99.90      -99.90      -99.90      -99.90      -99.90      -99.90      -99.90      -99.90    
  33   -99.90      -99.90      -99.90      -99.90      -99.90      -99.90      -99.90      -99.90      -99.90      -99.90    
       -99.90      -99.90      -99.90      -99.90      -99.90      -99.90      -99.90      -99.90      -99.90      -99.90    
       -99.90      -99.90      -99.90      -99.90      -99.90      -99.90      -99.90      -99.90      -99.90      -99.90    
       -99.90      -99.90      -99.90      -99.90      -99.90      -99.90      -99.90      -99.90      -99.90      -99.90    
  34   -99.90      -99.90      -99.90      -99.90      -99.90      -99.90      -99.90      -99.90      -99.90      -99.90    
       -99.90      -99.90      -99.90      -99.90      -99.90      -99.90      -99.90      -99.90      -99.90      -99.90    
       -99.90      -99.90      -99.90      -99.90      -99.90      -99.90      -99.90      -99.90      -99.90      -99.90    
       -99.90      -99.90      -99.90      -99.90      -99.90      -99.90      -99.90      -99.90      -99.90      -99.90    
  35   -99.90      -99.90      -99.90      -99.90      -99.90      -99.90      -99.90      -99.90      -99.90      -99.90    
       -99.90      -99.90      -99.90      -99.90      -99.90      -99.90      -99.90      -99.90      -99.90      -99.90    
       -99.90      -99.90      -99.90      -99.90      -99.90      -99.90      -99.90      -99.90      -99.90      -99.90    
       -99.90      -99.90      -99.90      -99.90      -99.90      -99.90      -99.90      -99.90      -99.90      -99.90    
  36   -99.90      -99.90      -99.90      -99.90      -99.90      -99.90      -99.90      -99.90      -99.90      -99.90    
       -99.90      -99.90      -99.90      -99.90      -99.90      -99.90      -99.90      -99.90      -99.90      -99.90    
       -99.90      -99.90      -99.90      -99.90      -99.90      -99.90      -99.90      -99.90      -99.90      -99.90    
       -99.90      -99.90      -99.90      -99.90      -99.90      -99.90      -99.90      -99.90      -99.90      -99.90    
  37   -99.90      -99.90      -99.90      -99.90      -99.90      -99.90      -99.90      -99.90      -99.90      -99.90    
       -99.90      -99.90      -99.90      -99.90      -99.90      -99.90      -99.90      -99.90      -99.90      -99.90    
       -99.90      -99.90      -99.90      -99.90      -99.90      -99.90      -99.90      -99.90      -99.90      -99.90    
       -99.90      -99.90      -99.90      -99.90      -99.90      -99.90      -99.90      -99.90      -99.90      -99.90    
  38   -99.90      -99.90      -99.90      -99.90      -99.90      -99.90      -99.90      -99.90      -99.90      -99.90    
       -99.90      -99.90      -99.90      -99.90      -99.90      -99.90      -99.90      -99.90      -99.90      -99.90    
       -99.90      -99.90      -99.90      -99.90      -99.90      -99.90      -99.90      -99.90      -99.90      -99.90    
       -99.90      -99.90      -99.90      -99.90      -99.90      -99.90      -99.90      -99.90      -99.90      -99.90    
  39   -99.90      -99.90      -99.90      -99.90      -99.90      -99.90      -99.90      -99.90      -99.90      -99.90    
       -99.90      -99.90      -99.90      -99.90      -99.90      -99.90      -99.90      -99.90      -99.90      -99.90    
       -99.90      -99.90      -99.90      -99.90      -99.90      -99.90      -99.90      -99.90      -99.90      -99.90    
       -99.90      -99.90      -99.90      -99.90      -99.90      -99.90      -99.90      -99.90      -99.90      -99.90    
  40   -99.90      -99.90      -99.90      -99.90      -99.90      -99.90      -99.90      -99.90      -99.90      -99.90    
       -99.90      -99.90      -99.90      -99.90      -99.90      -99.90      -99.90      -99.90      -99.90      -99.90    
       -99.90      -99.90      -99.90      -99.90      -99.90      -99.90      -99.90      -99.90      -99.90      -99.90    
       -99.90      -99.90      -99.90      -99.90      -99.90      -99.90      -99.90      -99.90      -99.90      -99.90    
1
              HEAD IN LAYER 4 AT END OF TIME STEP 1 IN STRESS PERIOD 1
  ---------------------------------------------------------------------------

            1           2           3           4           5           6           7           8           9          10
           11          12          13          14          15          16          17          18          19          20
           21          22          23          24          25          26          27          28          29          30
           31          32          33          34          35          36          37          38          39          40
 ........................................................................................................................
   1   -99.90      -99.90      -99.90      -99.90      -99.90      -99.90      -99.90      -99.90      -99.90      -99.90    
       -99.90      -99.90      -99.90      -99.90      -99.90      -99.90      -99.90      -99.90      -99.90      -99.90    
       -99.90      -99.90      -99.90      -99.90      -99.90      -99.90      -99.90      -99.90      -99.90      -99.90    
       -99.90      -99.90      -99.90      -99.90      -99.90      -99.90      -99.90      -99.90      -99.90      -99.90    
   2   -99.90      -99.90      -99.90      -99.90      -99.90      -99.90      -99.90      -99.90      -99.90      -99.90    
       -99.90      -99.90      -99.90      -99.90      -99.90      -99.90      -99.90      -99.90      -99.90      -99.90    
       -99.90      -99.90      -99.90      -99.90      -99.90      -99.90      -99.90      -99.90      -99.90      -99.90    
       -99.90      -99.90      -99.90      -99.90      -99.90      -99.90      -99.90      -99.90      -99.90      -99.90    
   3   -99.90      -99.90      -99.90      -99.90      -99.90      -99.90      -99.90      -99.90      -99.90      -99.90    
       -99.90      -99.90      -99.90      -99.90      -99.90      -99.90      -99.90      -99.90      -99.90      -99.90    
       -99.90      -99.90      -99.90      -99.90      -99.90      -99.90      -99.90      -99.90      -99.90      -99.90    
       -99.90      -99.90      -99.90      -99.90      -99.90      -99.90      -99.90      -99.90      -99.90      -99.90    
   4   -99.90      -99.90      -99.90      -99.90      -99.90      -99.90      -99.90      -99.90      -99.90      -99.90    
       -99.90      -99.90      -99.90      -99.90      -99.90      -99.90      -99.90      -99.90      -99.90      -99.90    
       -99.90      -99.90      -99.90      -99.90      -99.90      -99.90      -99.90      -99.90      -99.90      -99.90    
       -99.90      -99.90      -99.90      -99.90      -99.90      -99.90      -99.90      -99.90      -99.90      -99.90    
   5   -99.90      -99.90      -99.90      -99.90      -99.90      -99.90      -99.90      -99.90      -99.90      -99.90    
       -99.90      -99.90      -99.90      -99.90      -99.90      -99.90      -99.90      -99.90      -99.90      -99.90    
       -99.90      -99.90      -99.90      -99.90      -99.90      -99.90      -99.90      -99.90      -99.90      -99.90    
       -99.90      -99.90      -99.90      -99.90      -99.90      -99.90      -99.90      -99.90      -99.90      -99.90    
   6   -99.90      -99.90      -99.90      -99.90      -99.90      -99.90      -99.90      -99.90      -99.90      -99.90    
       -99.90      -99.90      -99.90      -99.90      -99.90      -99.90      -99.90      -99.90      -99.90      -99.90    
       -99.90      -99.90      -99.90      -99.90      -99.90      -99.90      -99.90      -99.90      -99.90      -99.90    
       -99.90      -99.90      -99.90      -99.90      -99.90      -99.90      -99.90      -99.90      -99.90      -99.90    
   7   -99.90      -99.90      -99.90      -99.90      -99.90      -99.90      -99.90      -99.90      -99.90      -99.90    
       -99.90      -99.90      -99.90      -99.90      -99.90      -99.90      -99.90      -99.90      -99.90      -99.90    
       -99.90      -99.90      -99.90      -99.90      -99.90      -99.90      -99.90      -99.90      -99.90      -99.90    
       -99.90      -99.90      -99.90      -99.90      -99.90      -99.90      -99.90      -99.90      -99.90      -99.90    
   8   -99.90      -99.90      -99.90      -99.90      -99.90      -99.90      -99.90      -99.90      -99.90      -99.90    
       -99.90      -99.90      -99.90      -99.90      -99.90      -99.90      -99.90      -99.90      -99.90      -99.90    
       -99.90      -99.90      -99.90      -99.90      -99.90      -99.90      -99.90      -99.90      -99.90      -99.90    
       -99.90      -99.90      -99.90      -99.90      -99.90      -99.90      -99.90      -99.90      -99.90      -99.90    
   9   -99.90      -99.90      -99.90      -99.90      -99.90      -99.90      -99.90      -99.90      -99.90      -99.90    
       -99.90      -99.90      -99.90      -99.90      -99.90      -99.90      -99.90      -99.90      -99.90      -99.90    
       -99.90      -99.90      -99.90      -99.90      -99.90      -99.90      -99.90      -99.90      -99.90      -99.90    
       -99.90      -99.90      -99.90      -99.90      -99.90      -99.90      -99.90      -99.90      -99.90      -99.90    
  10   -99.90      -99.90      -99.90      -99.90      -99.90      -99.90      -99.90      -99.90      -99.90      -99.90    
       -99.90      -99.90      -99.90      -99.90      -99.90      -99.90      -99.90      -99.90      -99.90      -99.90    
       -99.90      -99.90      -99.90      -99.90      -99.90      -99.90      -99.90      -99.90      -99.90      -99.90    
       -99.90      -99.90      -99.90      -99.90      -99.90      -99.90      -99.90      -99.90      -99.90      -99.90    
  11   -99.90      -99.90      -99.90      -99.90      -99.90      -99.90      -99.90      -99.90      -99.90      -99.90    
       -99.90      -99.90      -99.90      -99.90      -99.90      -99.90      -99.90      -99.90      -99.90      -99.90    
       -99.90      -99.90      -99.90      -99.90      -99.90      -99.90      -99.90      -99.90      -99.90      -99.90    
       -99.90      -99.90      -99.90      -99.90      -99.90      -99.90      -99.90      -99.90      -99.90      -99.90    
  12   -99.90      -99.90      -99.90      -99.90      -99.90      -99.90      -99.90      -99.90      -99.90      -99.90    
       -99.90      -99.90      -99.90      -99.90      -99.90      -99.90      -99.90      -99.90      -99.90      -99.90    
       -99.90      -99.90      -99.90      -99.90      -99.90      -99.90      -99.90      -99.90      -99.90      -99.90    
       -99.90      -99.90      -99.90      -99.90      -99.90      -99.90      -99.90      -99.90      -99.90      -99.90    
  13   -99.90      -99.90      -99.90      -99.90      -99.90      -99.90      -99.90      -99.90      -99.90      -99.90    
       -99.90      -99.90      -99.90      -99.90      -99.90      -99.90      -99.90      -99.90      -99.90      -99.90    
       -99.90      -99.90      -99.90      -99.90      -99.90      -99.90      -99.90      -99.90      -99.90      -99.90    
       -99.90      -99.90      -99.90      -99.90      -99.90      -99.90      -99.90      -99.90      -99.90      -99.90    
  14   -99.90      -99.90      -99.90      -99.90      -99.90      -99.90      -99.90      -99.90      -99.90      -99.90    
       -99.90      -99.90      -99.90      -99.90      -99.90      -99.90      -99.90      -99.90      -99.90      -99.90    
       -99.90      -99.90      -99.90      -99.90      -99.90      -99.90      -99.90      -99.90      -99.90      -99.90    
       -99.90      -99.90      -99.90      -99.90      -99.90      -99.90      -99.90      -99.90      -99.90      -99.90    
  15   -99.90      -99.90      -99.90      -99.90      -99.90      -99.90      -99.90      -99.90      -99.90      -99.90    
       -99.90      -99.90      -99.90      -99.90      -99.90      -99.90      -99.90      -99.90      -99.90      -99.90    
       -99.90      -99.90      -99.90      -99.90      -99.90      -99.90      -99.90      -99.90      -99.90      -99.90    
       -99.90      -99.90      -99.90      -99.90      -99.90      -99.90      -99.90      -99.90      -99.90      -99.90    
  16   -99.90      -99.90      -99.90      -99.90      -99.90      -99.90      -99.90      -99.90      -99.90      -99.90    
       -99.90      -99.90      -99.90      -99.90      -99.90      -99.90      -99.90      -99.90      -99.90      -99.90    
       -99.90      -99.90      -99.90      -99.90      -99.90      -99.90      -99.90      -99.90      -99.90      -99.90    
       -99.90      -99.90      -99.90      -99.90      -99.90      -99.90      -99.90      -99.90      -99.90      -99.90    
  17   -99.90      -99.90      -99.90      -99.90      -99.90      -99.90      -99.90      -99.90      -99.90      -99.90    
       -99.90      -99.90      -99.90      -99.90      -99.90      -99.90      -99.90      -99.90      -99.90      -99.90    
       -99.90      -99.90      -99.90      -99.90      -99.90      -99.90      -99.90      -99.90      -99.90      -99.90    
       -99.90      -99.90      -99.90      -99.90      -99.90      -99.90      -99.90      -99.90      -99.90      -99.90    
  18   -99.90      -99.90      -99.90      -99.90      -99.90      -99.90      -99.90      -99.90      -99.90      -99.90    
       -99.90      -99.90      -99.90      -99.90      -99.90      -99.90      -99.90      -99.90      -99.90      -99.90    
       -99.90      -99.90      -99.90      -99.90      -99.90      -99.90      -99.90      -99.90      -99.90      -99.90    
       -99.90      -99.90      -99.90      -99.90      -99.90      -99.90      -99.90      -99.90      -99.90      -99.90    
  19   -99.90      -99.90      -99.90      -99.90      -99.90      -99.90      -99.90      -99.90      -99.90      -99.90    
       -99.90      -99.90      -99.90      -99.90      -99.90      -99.90      -99.90      -99.90      -99.90      -99.90    
       -99.90      -99.90      -99.90      -99.90      -99.90      -99.90      -99.90      -99.90      -99.90      -99.90    
       -99.90      -99.90      -99.90      -99.90      -99.90      -99.90      -99.90      -99.90      -99.90      -99.90    
  20   -99.90      -99.90      -99.90      -99.90      -99.90      -99.90      -99.90      -99.90      -99.90      -99.90    
       -99.90      -99.90      -99.90      -99.90      -99.90      -99.90      -99.90      -99.90      -99.90      -99.90    
       -99.90      -99.90      -99.90      -99.90      -99.90      -99.90      -99.90      -99.90      -99.90      -99.90    
       -99.90      -99.90      -99.90      -99.90      -99.90      -99.90      -99.90      -99.90      -99.90      -99.90    
  21   -99.90      -99.90      -99.90      -99.90      -99.90      -99.90      -99.90      -99.90      -99.90      -99.90    
       -99.90      -99.90      -99.90      -99.90      -99.90      -99.90      -99.90      -99.90      -99.90      -99.90    
       -99.90      -99.90      -99.90      -99.90      -99.90      -99.90      -99.90      -99.90      -99.90      -99.90    
       -99.90      -99.90      -99.90      -99.90      -99.90      -99.90      -99.90      -99.90      -99.90      -99.90    
  22   -99.90      -99.90      -99.90      -99.90      -99.90      -99.90      -99.90      -99.90      -99.90      -99.90    
       -99.90      -99.90      -99.90      -99.90      -99.90      -99.90      -99.90      -99.90      -99.90      -99.90    
       -99.90      -99.90      -99.90      -99.90      -99.90      -99.90      -99.90      -99.90      -99.90      -99.90    
       -99.90      -99.90      -99.90      -99.90      -99.90      -99.90      -99.90      -99.90      -99.90      -99.90    
  23   -99.90      -99.90      -99.90      -99.90      -99.90      -99.90      -99.90      -99.90      -99.90      -99.90    
       -99.90      -99.90      -99.90      -99.90      -99.90      -99.90      -99.90      -99.90      -99.90      -99.90    
       -99.90      -99.90      -99.90      -99.90      -99.90      -99.90      -99.90      -99.90      -99.90      -99.90    
       -99.90      -99.90      -99.90      -99.90      -99.90      -99.90      -99.90      -99.90      -99.90      -99.90    
  24   -99.90      -99.90      -99.90      -99.90      -99.90      -99.90      -99.90      -99.90      -99.90      -99.90    
       -99.90      -99.90      -99.90      -99.90      -99.90      -99.90      -99.90      -99.90      -99.90      -99.90    
       -99.90      -99.90      -99.90      -99.90      -99.90      -99.90      -99.90      -99.90      -99.90      -99.90    
       -99.90      -99.90      -99.90      -99.90      -99.90      -99.90      -99.90      -99.90      -99.90      -99.90    
  25   -99.90      -99.90      -99.90      -99.90      -99.90      -99.90      -99.90      -99.90      -99.90      -99.90    
       -99.90      -99.90      -99.90      -99.90      -99.90      -99.90      -99.90      -99.90      -99.90      -99.90    
       -99.90      -99.90      -99.90      -99.90      -99.90      -99.90      -99.90      -99.90      -99.90      -99.90    
       -99.90      -99.90      -99.90      -99.90      -99.90      -99.90      -99.90      -99.90      -99.90      -99.90    
  26   -99.90      -99.90      -99.90      -99.90      -99.90      -99.90      -99.90      -99.90      -99.90      -99.90    
       -99.90      -99.90      -99.90      -99.90      -99.90      -99.90      -99.90      -99.90      -99.90      -99.90    
       -99.90      -99.90      -99.90      -99.90      -99.90      -99.90      -99.90      -99.90      -99.90      -99.90    
       -99.90      -99.90      -99.90      -99.90      -99.90      -99.90      -99.90      -99.90      -99.90      -99.90    
  27   -99.90      -99.90      -99.90      -99.90      -99.90      -99.90      -99.90      -99.90      -99.90      -99.90    
       -99.90      -99.90      -99.90      -99.90      -99.90      -99.90      -99.90      -99.90      -99.90      -99.90    
       -99.90      -99.90      -99.90      -99.90      -99.90      -99.90      -99.90      -99.90      -99.90      -99.90    
       -99.90      -99.90      -99.90      -99.90      -99.90      -99.90      -99.90      -99.90      -99.90      -99.90    
  28   -99.90      -99.90      -99.90      -99.90      -99.90      -99.90      -99.90      -99.90      -99.90      -99.90    
       -99.90      -99.90      -99.90      -99.90      -99.90      -99.90      -99.90      -99.90      -99.90      -99.90    
       -99.90      -99.90      -99.90      -99.90      -99.90      -99.90      -99.90      -99.90      -99.90      -99.90    
       -99.90      -99.90      -99.90      -99.90      -99.90      -99.90      -99.90      -99.90      -99.90      -99.90    
  29   -99.90      -99.90      -99.90      -99.90      -99.90      -99.90      -99.90      -99.90      -99.90      -99.90    
       -99.90      -99.90      -99.90      -99.90      -99.90      -99.90      -99.90      -99.90      -99.90      -99.90    
       -99.90      -99.90      -99.90      -99.90      -99.90      -99.90      -99.90      -99.90      -99.90      -99.90    
       -99.90      -99.90      -99.90      -99.90      -99.90      -99.90      -99.90      -99.90      -99.90      -99.90    
  30   -99.90      -99.90      -99.90      -99.90      -99.90      -99.90      -99.90      -99.90      -99.90      -99.90    
       -99.90      -99.90      -99.90      -99.90      -99.90      -99.90      -99.90      -99.90      -99.90      -99.90    
       -99.90      -99.90      -99.90      -99.90      -99.90      -99.90      -99.90      -99.90      -99.90      -99.90    
       -99.90      -99.90      -99.90      -99.90      -99.90      -99.90      -99.90      -99.90      -99.90      -99.90    
  31   -99.90      -99.90      -99.90      -99.90      -99.90      -99.90      -99.90      -99.90      -99.90      -99.90    
       -99.90      -99.90      -99.90      -99.90      -99.90      -99.90      -99.90      -99.90      -99.90      -99.90    
       -99.90      -99.90      -99.90      -99.90      -99.90      -99.90      -99.90      -99.90      -99.90      -99.90    
       -99.90      -99.90      -99.90      -99.90      -99.90      -99.90      -99.90      -99.90      -99.90      -99.90    
  32   -99.90      -99.90      -99.90      -99.90      -99.90      -99.90      -99.90      -99.90      -99.90      -99.90    
       -99.90      -99.90      -99.90      -99.90      -99.90      -99.90      -99.90      -99.90      -99.90      -99.90    
       -99.90      -99.90      -99.90      -99.90      -99.90      -99.90      -99.90      -99.90      -99.90      -99.90    
       -99.90      -99.90      -99.90      -99.90      -99.90      -99.90      -99.90      -99.90      -99.90      -99.90    
  33   -99.90      -99.90      -99.90      -99.90      -99.90      -99.90      -99.90      -99.90      -99.90      -99.90    
       -99.90      -99.90      -99.90      -99.90      -99.90      -99.90      -99.90      -99.90      -99.90      -99.90    
       -99.90      -99.90      -99.90      -99.90      -99.90      -99.90      -99.90      -99.90      -99.90      -99.90    
       -99.90      -99.90      -99.90      -99.90      -99.90      -99.90      -99.90      -99.90      -99.90      -99.90    
  34   -99.90      -99.90      -99.90      -99.90      -99.90      -99.90      -99.90      -99.90      -99.90      -99.90    
       -99.90      -99.90      -99.90      -99.90      -99.90      -99.90      -99.90      -99.90      -99.90      -99.90    
       -99.90      -99.90      -99.90      -99.90      -99.90      -99.90      -99.90      -99.90      -99.90      -99.90    
       -99.90      -99.90      -99.90      -99.90      -99.90      -99.90      -99.90      -99.90      -99.90      -99.90    
  35   -99.90      -99.90      -99.90      -99.90      -99.90      -99.90      -99.90      -99.90      -99.90      -99.90    
       -99.90      -99.90      -99.90      -99.90      -99.90      -99.90      -99.90      -99.90      -99.90      -99.90    
       -99.90      -99.90      -99.90      -99.90      -99.90      -99.90      -99.90      -99.90      -99.90      -99.90    
       -99.90      -99.90      -99.90      -99.90      -99.90      -99.90      -99.90      -99.90      -99.90      -99.90    
  36   -99.90      -99.90      -99.90      -99.90      -99.90      -99.90      -99.90      -99.90      -99.90      -99.90    
       -99.90      -99.90      -99.90      -99.90      -99.90      -99.90      -99.90      -99.90      -99.90      -99.90    
       -99.90      -99.90      -99.90      -99.90      -99.90      -99.90      -99.90      -99.90      -99.90      -99.90    
       -99.90      -99.90      -99.90      -99.90      -99.90      -99.90      -99.90      -99.90      -99.90      -99.90    
  37   -99.90      -99.90      -99.90      -99.90      -99.90      -99.90      -99.90      -99.90      -99.90      -99.90    
       -99.90      -99.90      -99.90      -99.90      -99.90      -99.90      -99.90      -99.90      -99.90      -99.90    
       -99.90      -99.90      -99.90      -99.90      -99.90      -99.90      -99.90      -99.90      -99.90      -99.90    
       -99.90      -99.90      -99.90      -99.90      -99.90      -99.90      -99.90      -99.90      -99.90      -99.90    
  38   -99.90      -99.90      -99.90      -99.90      -99.90      -99.90      -99.90      -99.90      -99.90      -99.90    
       -99.90      -99.90      -99.90      -99.90      -99.90      -99.90      -99.90      -99.90      -99.90      -99.90    
       -99.90      -99.90      -99.90      -99.90      -99.90      -99.90      -99.90      -99.90      -99.90      -99.90    
       -99.90      -99.90      -99.90      -99.90      -99.90      -99.90      -99.90      -99.90      -99.90      -99.90    
  39   -99.90      -99.90      -99.90      -99.90      -99.90      -99.90      -99.90      -99.90      -99.90      -99.90    
       -99.90      -99.90      -99.90      -99.90      -99.90      -99.90      -99.90      -99.90      -99.90      -99.90    
       -99.90      -99.90      -99.90      -99.90      -99.90      -99.90      -99.90      -99.90      -99.90      -99.90    
       -99.90      -99.90      -99.90      -99.90      -99.90      -99.90      -99.90      -99.90      -99.90      -99.90    
  40   -99.90      -99.90      -99.90      -99.90      -99.90      -99.90      -99.90      -99.90      -99.90      -99.90    
       -99.90      -99.90      -99.90      -99.90      -99.90      -99.90      -99.90      -99.90      -99.90      -99.90    
       -99.90      -99.90      -99.90      -99.90      -99.90      -99.90      -99.90      -99.90      -99.90      -99.90    
       -99.90      -99.90      -99.90      -99.90      -99.90      -99.90      -99.90      -99.90      -99.90      -99.90    
1
              HEAD IN LAYER 5 AT END OF TIME STEP 1 IN STRESS PERIOD 1
  ---------------------------------------------------------------------------

            1           2           3           4           5           6           7           8           9          10
           11          12          13          14          15          16          17          18          19          20
           21          22          23          24          25          26          27          28          29          30
           31          32          33          34          35          36          37          38          39          40
 ........................................................................................................................
   1   -99.90      -99.90      -99.90      -99.90      -99.90      -99.90      -99.90      -99.90      -99.90      -99.90    
       -99.90      -99.90      -99.90      -99.90      -99.90      -99.90      -99.90      -99.90      -99.90      -99.90    
       -99.90      -99.90      -99.90      -99.90      -99.90      -99.90      -99.90      -99.90      -99.90      -99.90    
       -99.90      -99.90      -99.90      -99.90      -99.90      -99.90      -99.90      -99.90      -99.90      -99.90    
   2   -99.90      -99.90      -99.90      -99.90      -99.90      -99.90      -99.90      -99.90      -99.90      -99.90    
       -99.90      -99.90      -99.90      -99.90      -99.90      -99.90      -99.90      -99.90      -99.90      -99.90    
       -99.90      -99.90      -99.90      -99.90      -99.90      -99.90      -99.90      -99.90      -99.90      -99.90    
       -99.90      -99.90      -99.90      -99.90      -99.90      -99.90      -99.90      -99.90      -99.90      -99.90    
   3   -99.90      -99.90      -99.90      -99.90      -99.90      -99.90      -99.90      -99.90      -99.90      -99.90    
       -99.90      -99.90      -99.90      -99.90      -99.90      -99.90      -99.90      -99.90      -99.90      -99.90    
       -99.90      -99.90      -99.90      -99.90      -99.90      -99.90      -99.90      -99.90      -99.90      -99.90    
       -99.90      -99.90      -99.90      -99.90      -99.90      -99.90      -99.90      -99.90      -99.90      -99.90    
   4   -99.90      -99.90      -99.90      -99.90      -99.90      -99.90      -99.90      -99.90      -99.90      -99.90    
       -99.90      -99.90      -99.90      -99.90      -99.90      -99.90      -99.90      -99.90      -99.90      -99.90    
       -99.90      -99.90      -99.90      -99.90      -99.90      -99.90      -99.90      -99.90      -99.90      -99.90    
       -99.90      -99.90      -99.90      -99.90      -99.90      -99.90      -99.90      -99.90      -99.90      -99.90    
   5   -99.90      -99.90      -99.90      -99.90      -99.90      -99.90      -99.90      -99.90      -99.90      -99.90    
       -99.90      -99.90      -99.90      -99.90      -99.90      -99.90      -99.90      -99.90      -99.90      -99.90    
       -99.90      -99.90      -99.90      -99.90      -99.90      -99.90      -99.90      -99.90      -99.90      -99.90    
       -99.90      -99.90      -99.90      -99.90      -99.90      -99.90      -99.90      -99.90      -99.90      -99.90    
   6   -99.90      -99.90      -99.90      -99.90      -99.90      -99.90      -99.90      -99.90      -99.90      -99.90    
       -99.90      -99.90      -99.90      -99.90      -99.90      -99.90      -99.90      -99.90      -99.90      -99.90    
       -99.90      -99.90      -99.90      -99.90      -99.90      -99.90      -99.90      -99.90      -99.90      -99.90    
       -99.90      -99.90      -99.90      -99.90      -99.90      -99.90      -99.90      -99.90      -99.90      -99.90    
   7   -99.90      -99.90      -99.90      -99.90      -99.90      -99.90      -99.90      -99.90      -99.90      -99.90    
       -99.90      -99.90      -99.90      -99.90      -99.90      -99.90      -99.90      -99.90      -99.90      -99.90    
       -99.90      -99.90      -99.90      -99.90      -99.90      -99.90      -99.90      -99.90      -99.90      -99.90    
       -99.90      -99.90      -99.90      -99.90      -99.90      -99.90      -99.90      -99.90      -99.90      -99.90    
   8   -99.90      -99.90      -99.90      -99.90      -99.90      -99.90      -99.90      -99.90      -99.90      -99.90    
       -99.90      -99.90      -99.90      -99.90      -99.90      -99.90      -99.90      -99.90      -99.90      -99.90    
       -99.90      -99.90      -99.90      -99.90      -99.90      -99.90      -99.90      -99.90      -99.90      -99.90    
       -99.90      -99.90      -99.90      -99.90      -99.90      -99.90      -99.90      -99.90      -99.90      -99.90    
   9   -99.90      -99.90      -99.90      -99.90      -99.90      -99.90      -99.90      -99.90      -99.90      -99.90    
       -99.90      -99.90      -99.90      -99.90      -99.90      -99.90      -99.90      -99.90      -99.90      -99.90    
       -99.90      -99.90      -99.90      -99.90      -99.90      -99.90      -99.90      -99.90      -99.90      -99.90    
       -99.90      -99.90      -99.90      -99.90      -99.90      -99.90      -99.90      -99.90      -99.90      -99.90    
  10   -99.90      -99.90      -99.90      -99.90      -99.90      -99.90      -99.90      -99.90      -99.90      -99.90    
       -99.90      -99.90      -99.90      -99.90      -99.90      -99.90      -99.90      -99.90      -99.90      -99.90    
       -99.90      -99.90      -99.90      -99.90      -99.90      -99.90      -99.90      -99.90      -99.90      -99.90    
       -99.90      -99.90      -99.90      -99.90      -99.90      -99.90      -99.90      -99.90      -99.90      -99.90    
  11   -99.90      -99.90      -99.90      -99.90      -99.90      -99.90      -99.90      -99.90      -99.90      -99.90    
       -99.90      -99.90      -99.90      -99.90      -99.90      -99.90      -99.90      -99.90      -99.90      -99.90    
       -99.90      -99.90      -99.90      -99.90      -99.90      -99.90      -99.90      -99.90      -99.90      -99.90    
       -99.90      -99.90      -99.90      -99.90      -99.90      -99.90      -99.90      -99.90      -99.90      -99.90    
  12   -99.90      -99.90      -99.90      -99.90      -99.90      -99.90      -99.90      -99.90      -99.90      -99.90    
       -99.90      -99.90      -99.90      -99.90      -99.90      -99.90      -99.90      -99.90      -99.90      -99.90    
       -99.90      -99.90      -99.90      -99.90      -99.90      -99.90      -99.90      -99.90      -99.90      -99.90    
       -99.90      -99.90      -99.90      -99.90      -99.90      -99.90      -99.90      -99.90      -99.90      -99.90    
  13   -99.90      -99.90      -99.90      -99.90      -99.90      -99.90      -99.90      -99.90      -99.90      -99.90    
       -99.90      -99.90      -99.90      -99.90      -99.90      -99.90      -99.90      -99.90      -99.90      -99.90    
       -99.90      -99.90      -99.90      -99.90      -99.90      -99.90      -99.90      -99.90      -99.90      -99.90    
       -99.90      -99.90      -99.90      -99.90      -99.90      -99.90      -99.90      -99.90      -99.90      -99.90    
  14   -99.90      -99.90      -99.90      -99.90      -99.90      -99.90      -99.90      -99.90      -99.90      -99.90    
       -99.90      -99.90      -99.90      -99.90      -99.90      -99.90      -99.90      -99.90      -99.90      -99.90    
       -99.90      -99.90      -99.90      -99.90      -99.90      -99.90      -99.90      -99.90      -99.90      -99.90    
       -99.90      -99.90      -99.90      -99.90      -99.90      -99.90      -99.90      -99.90      -99.90      -99.90    
  15   -99.90      -99.90      -99.90      -99.90      -99.90      -99.90      -99.90      -99.90      -99.90      -99.90    
       -99.90      -99.90      -99.90      -99.90      -99.90      -99.90      -99.90      -99.90      -99.90      -99.90    
       -99.90      -99.90      -99.90      -99.90      -99.90      -99.90      -99.90      -99.90      -99.90      -99.90    
       -99.90      -99.90      -99.90      -99.90      -99.90      -99.90      -99.90      -99.90      -99.90      -99.90    
  16   -99.90      -99.90      -99.90      -99.90      -99.90      -99.90      -99.90      -99.90      -99.90      -99.90    
       -99.90      -99.90      -99.90      -99.90      -99.90      -99.90      -99.90      -99.90      -99.90      -99.90    
       -99.90      -99.90      -99.90      -99.90      -99.90      -99.90      -99.90      -99.90      -99.90      -99.90    
       -99.90      -99.90      -99.90      -99.90      -99.90      -99.90      -99.90      -99.90      -99.90      -99.90    
  17   -99.90      -99.90      -99.90      -99.90      -99.90      -99.90      -99.90      -99.90      -99.90      -99.90    
       -99.90      -99.90      -99.90      -99.90      -99.90      -99.90      -99.90      -99.90      -99.90      -99.90    
       -99.90      -99.90      -99.90      -99.90      -99.90      -99.90      -99.90      -99.90      -99.90      -99.90    
       -99.90      -99.90      -99.90      -99.90      -99.90      -99.90      -99.90      -99.90      -99.90      -99.90    
  18   -99.90      -99.90      -99.90      -99.90      -99.90      -99.90      -99.90      -99.90      -99.90      -99.90    
       -99.90      -99.90      -99.90      -99.90      -99.90      -99.90      -99.90      -99.90      -99.90      -99.90    
       -99.90      -99.90      -99.90      -99.90      -99.90      -99.90      -99.90      -99.90      -99.90      -99.90    
       -99.90      -99.90      -99.90      -99.90      -99.90      -99.90      -99.90      -99.90      -99.90      -99.90    
  19   -99.90      -99.90      -99.90      -99.90      -99.90      -99.90      -99.90      -99.90      -99.90      -99.90    
       -99.90      -99.90      -99.90      -99.90      -99.90      -99.90      -99.90      -99.90      -99.90      -99.90    
       -99.90      -99.90      -99.90      -99.90      -99.90      -99.90      -99.90      -99.90      -99.90      -99.90    
       -99.90      -99.90      -99.90      -99.90      -99.90      -99.90      -99.90      -99.90      -99.90      -99.90    
  20   -99.90      -99.90      -99.90      -99.90      -99.90      -99.90      -99.90      -99.90      -99.90      -99.90    
       -99.90      -99.90      -99.90      -99.90      -99.90      -99.90      -99.90      -99.90      -99.90      -99.90    
       -99.90      -99.90      -99.90      -99.90      -99.90      -99.90      -99.90      -99.90      -99.90      -99.90    
       -99.90      -99.90      -99.90      -99.90      -99.90      -99.90      -99.90      -99.90      -99.90      -99.90    
  21   -99.90      -99.90      -99.90      -99.90      -99.90      -99.90      -99.90      -99.90      -99.90      -99.90    
       -99.90      -99.90      -99.90      -99.90      -99.90      -99.90      -99.90      -99.90      -99.90      -99.90    
       -99.90      -99.90      -99.90      -99.90      -99.90      -99.90      -99.90      -99.90      -99.90      -99.90    
       -99.90      -99.90      -99.90      -99.90      -99.90      -99.90      -99.90      -99.90      -99.90      -99.90    
  22   -99.90      -99.90      -99.90      -99.90      -99.90      -99.90      -99.90      -99.90      -99.90      -99.90    
       -99.90      -99.90      -99.90      -99.90      -99.90      -99.90      -99.90      -99.90      -99.90      -99.90    
       -99.90      -99.90      -99.90      -99.90      -99.90      -99.90      -99.90      -99.90      -99.90      -99.90    
       -99.90      -99.90      -99.90      -99.90      -99.90      -99.90      -99.90      -99.90      -99.90      -99.90    
  23   -99.90      -99.90      -99.90      -99.90      -99.90      -99.90      -99.90      -99.90      -99.90      -99.90    
       -99.90      -99.90      -99.90      -99.90      -99.90      -99.90      -99.90      -99.90      -99.90      -99.90    
       -99.90      -99.90      -99.90      -99.90      -99.90      -99.90      -99.90      -99.90      -99.90      -99.90    
       -99.90      -99.90      -99.90      -99.90      -99.90      -99.90      -99.90      -99.90      -99.90      -99.90    
  24   -99.90      -99.90      -99.90      -99.90      -99.90      -99.90      -99.90      -99.90      -99.90      -99.90    
       -99.90      -99.90      -99.90      -99.90      -99.90      -99.90      -99.90      -99.90      -99.90      -99.90    
       -99.90      -99.90      -99.90      -99.90      -99.90      -99.90      -99.90      -99.90      -99.90      -99.90    
       -99.90      -99.90      -99.90      -99.90      -99.90      -99.90      -99.90      -99.90      -99.90      -99.90    
  25   -99.90      -99.90      -99.90      -99.90      -99.90      -99.90      -99.90      -99.90      -99.90      -99.90    
       -99.90      -99.90      -99.90      -99.90      -99.90      -99.90      -99.90      -99.90      -99.90      -99.90    
       -99.90      -99.90      -99.90      -99.90      -99.90      -99.90      -99.90      -99.90      -99.90      -99.90    
       -99.90      -99.90      -99.90      -99.90      -99.90      -99.90      -99.90      -99.90      -99.90      -99.90    
  26   -99.90      -99.90      -99.90      -99.90      -99.90      -99.90      -99.90      -99.90      -99.90      -99.90    
       -99.90      -99.90      -99.90      -99.90      -99.90      -99.90      -99.90      -99.90      -99.90      -99.90    
       -99.90      -99.90      -99.90      -99.90      -99.90      -99.90      -99.90      -99.90      -99.90      -99.90    
       -99.90      -99.90      -99.90      -99.90      -99.90      -99.90      -99.90      -99.90      -99.90      -99.90    
  27   -99.90      -99.90      -99.90      -99.90      -99.90      -99.90      -99.90      -99.90      -99.90      -99.90    
       -99.90      -99.90      -99.90      -99.90      -99.90      -99.90      -99.90      -99.90      -99.90      -99.90    
       -99.90      -99.90      -99.90      -99.90      -99.90      -99.90      -99.90      -99.90      -99.90      -99.90    
       -99.90      -99.90      -99.90      -99.90      -99.90      -99.90      -99.90      -99.90      -99.90      -99.90    
  28   -99.90      -99.90      -99.90      -99.90      -99.90      -99.90      -99.90      -99.90      -99.90      -99.90    
       -99.90      -99.90      -99.90      -99.90      -99.90      -99.90      -99.90      -99.90      -99.90      -99.90    
       -99.90      -99.90      -99.90      -99.90      -99.90      -99.90      -99.90      -99.90      -99.90      -99.90    
       -99.90      -99.90      -99.90      -99.90      -99.90      -99.90      -99.90      -99.90      -99.90      -99.90    
  29   -99.90      -99.90      -99.90      -99.90      -99.90      -99.90      -99.90      -99.90      -99.90      -99.90    
       -99.90      -99.90      -99.90      -99.90      -99.90      -99.90      -99.90      -99.90      -99.90      -99.90    
       -99.90      -99.90      -99.90      -99.90      -99.90      -99.90      -99.90      -99.90      -99.90      -99.90    
       -99.90      -99.90      -99.90      -99.90      -99.90      -99.90      -99.90      -99.90      -99.90      -99.90    
  30   -99.90      -99.90      -99.90      -99.90      -99.90      -99.90      -99.90      -99.90      -99.90      -99.90    
       -99.90      -99.90      -99.90      -99.90      -99.90      -99.90      -99.90      -99.90      -99.90      -99.90    
       -99.90      -99.90      -99.90      -99.90      -99.90      -99.90      -99.90      -99.90      -99.90      -99.90    
       -99.90      -99.90      -99.90      -99.90      -99.90      -99.90      -99.90      -99.90      -99.90      -99.90    
  31   -99.90      -99.90      -99.90      -99.90      -99.90      -99.90      -99.90      -99.90      -99.90      -99.90    
       -99.90      -99.90      -99.90      -99.90      -99.90      -99.90      -99.90      -99.90      -99.90      -99.90    
       -99.90      -99.90      -99.90      -99.90      -99.90      -99.90      -99.90      -99.90      -99.90      -99.90    
       -99.90      -99.90      -99.90      -99.90      -99.90      -99.90      -99.90      -99.90      -99.90      -99.90    
  32   -99.90      -99.90      -99.90      -99.90      -99.90      -99.90      -99.90      -99.90      -99.90      -99.90    
       -99.90      -99.90      -99.90      -99.90      -99.90      -99.90      -99.90      -99.90      -99.90      -99.90    
       -99.90      -99.90      -99.90      -99.90      -99.90      -99.90      -99.90      -99.90      -99.90      -99.90    
       -99.90      -99.90      -99.90      -99.90      -99.90      -99.90      -99.90      -99.90      -99.90      -99.90    
  33   -99.90      -99.90      -99.90      -99.90      -99.90      -99.90      -99.90      -99.90      -99.90      -99.90    
       -99.90      -99.90      -99.90      -99.90      -99.90      -99.90      -99.90      -99.90      -99.90      -99.90    
       -99.90      -99.90      -99.90      -99.90      -99.90      -99.90      -99.90      -99.90      -99.90      -99.90    
       -99.90      -99.90      -99.90      -99.90      -99.90      -99.90      -99.90      -99.90      -99.90      -99.90    
  34   -99.90      -99.90      -99.90      -99.90      -99.90      -99.90      -99.90      -99.90      -99.90      -99.90    
       -99.90      -99.90      -99.90      -99.90      -99.90      -99.90      -99.90      -99.90      -99.90      -99.90    
       -99.90      -99.90      -99.90      -99.90      -99.90      -99.90      -99.90      -99.90      -99.90      -99.90    
       -99.90      -99.90      -99.90      -99.90      -99.90      -99.90      -99.90      -99.90      -99.90      -99.90    
  35   -99.90      -99.90      -99.90      -99.90      -99.90      -99.90      -99.90      -99.90      -99.90      -99.90    
       -99.90      -99.90      -99.90      -99.90      -99.90      -99.90      -99.90      -99.90      -99.90      -99.90    
       -99.90      -99.90      -99.90      -99.90      -99.90      -99.90      -99.90      -99.90      -99.90      -99.90    
       -99.90      -99.90      -99.90      -99.90      -99.90      -99.90      -99.90      -99.90      -99.90      -99.90    
  36   -99.90      -99.90      -99.90      -99.90      -99.90      -99.90      -99.90      -99.90      -99.90      -99.90    
       -99.90      -99.90      -99.90      -99.90      -99.90      -99.90      -99.90      -99.90      -99.90      -99.90    
       -99.90      -99.90      -99.90      -99.90      -99.90      -99.90      -99.90      -99.90      -99.90      -99.90    
       -99.90      -99.90      -99.90      -99.90      -99.90      -99.90      -99.90      -99.90      -99.90      -99.90    
  37   -99.90      -99.90      -99.90      -99.90      -99.90      -99.90      -99.90      -99.90      -99.90      -99.90    
       -99.90      -99.90      -99.90      -99.90      -99.90      -99.90      -99.90      -99.90      -99.90      -99.90    
       -99.90      -99.90      -99.90      -99.90      -99.90      -99.90      -99.90      -99.90      -99.90      -99.90    
       -99.90      -99.90      -99.90      -99.90      -99.90      -99.90      -99.90      -99.90      -99.90      -99.90    
  38   -99.90      -99.90      -99.90      -99.90      -99.90      -99.90      -99.90      -99.90      -99.90      -99.90    
       -99.90      -99.90      -99.90      -99.90      -99.90      -99.90      -99.90      -99.90      -99.90      -99.90    
       -99.90      -99.90      -99.90      -99.90      -99.90      -99.90      -99.90      -99.90      -99.90      -99.90    
       -99.90      -99.90      -99.90      -99.90      -99.90      -99.90      -99.90      -99.90      -99.90      -99.90    
  39   -99.90      -99.90      -99.90      -99.90      -99.90      -99.90      -99.90      -99.90      -99.90      -99.90    
       -99.90      -99.90      -99.90      -99.90      -99.90      -99.90      -99.90      -99.90      -99.90      -99.90    
       -99.90      -99.90      -99.90      -99.90      -99.90      -99.90      -99.90      -99.90      -99.90      -99.90    
       -99.90      -99.90      -99.90      -99.90      -99.90      -99.90      -99.90      -99.90      -99.90      -99.90    
  40   -99.90      -99.90      -99.90      -99.90      -99.90      -99.90      -99.90      -99.90      -99.90      -99.90    
       -99.90      -99.90      -99.90      -99.90      -99.90      -99.90      -99.90      -99.90      -99.90      -99.90    
       -99.90      -99.90      -99.90      -99.90      -99.90      -99.90      -99.90      -99.90      -99.90      -99.90    
       -99.90      -99.90      -99.90      -99.90      -99.90      -99.90      -99.90      -99.90      -99.90      -99.90    
1
              HEAD IN LAYER 6 AT END OF TIME STEP 1 IN STRESS PERIOD 1
  ---------------------------------------------------------------------------

            1           2           3           4           5           6           7           8           9          10
           11          12          13          14          15          16          17          18          19          20
           21          22          23          24          25          26          27          28          29          30
           31          32          33          34          35          36          37          38          39          40
 ........................................................................................................................
   1   -99.90      -99.90      -99.90      -99.90      -99.90      -99.90      -99.90      -99.90      -99.90      -99.90    
       -99.90      -99.90      -99.90      -99.90      -99.90      -99.90      -99.90      -99.90      -99.90      -99.90    
       -99.90      -99.90      -99.90      -99.90      -99.90      -99.90      -99.90      -99.90      -99.90      -99.90    
       -99.90      -99.90      -99.90      -99.90      -99.90      -99.90      -99.90      -99.90      -99.90      -99.90    
   2   -99.90      -99.90      -99.90      -99.90      -99.90      -99.90      -99.90      -99.90      -99.90      -99.90    
       -99.90      -99.90      -99.90      -99.90      -99.90      -99.90      -99.90      -99.90      -99.90      -99.90    
       -99.90      -99.90      -99.90      -99.90      -99.90      -99.90      -99.90      -99.90      -99.90      -99.90    
       -99.90      -99.90      -99.90      -99.90      -99.90      -99.90      -99.90      -99.90      -99.90      -99.90    
   3   -99.90      -99.90      -99.90      -99.90      -99.90      -99.90      -99.90      -99.90      -99.90      -99.90    
       -99.90      -99.90      -99.90      -99.90      -99.90      -99.90      -99.90      -99.90      -99.90      -99.90    
       -99.90      -99.90      -99.90      -99.90      -99.90      -99.90      -99.90      -99.90      -99.90      -99.90    
       -99.90      -99.90      -99.90      -99.90      -99.90      -99.90      -99.90      -99.90      -99.90      -99.90    
   4   -99.90      -99.90      -99.90      -99.90      -99.90      -99.90      -99.90      -99.90      -99.90      -99.90    
       -99.90      -99.90      -99.90      -99.90      -99.90      -99.90      -99.90      -99.90      -99.90      -99.90    
       -99.90      -99.90      -99.90      -99.90      -99.90      -99.90      -99.90      -99.90      -99.90      -99.90    
       -99.90      -99.90      -99.90      -99.90      -99.90      -99.90      -99.90      -99.90      -99.90      -99.90    
   5   -99.90      -99.90      -99.90      -99.90      -99.90      -99.90      -99.90      -99.90      -99.90      -99.90    
       -99.90      -99.90      -99.90      -99.90      -99.90      -99.90      -99.90      -99.90      -99.90      -99.90    
       -99.90      -99.90      -99.90      -99.90      -99.90      -99.90      -99.90      -99.90      -99.90      -99.90    
       -99.90      -99.90      -99.90      -99.90      -99.90      -99.90      -99.90      -99.90      -99.90      -99.90    
   6   -99.90      -99.90      -99.90      -99.90      -99.90      -99.90      -99.90      -99.90      -99.90      -99.90    
       -99.90      -99.90      -99.90      -99.90      -99.90      -99.90      -99.90      -99.90      -99.90      -99.90    
       -99.90      -99.90      -99.90      -99.90      -99.90      -99.90      -99.90      -99.90      -99.90      -99.90    
       -99.90      -99.90      -99.90      -99.90      -99.90      -99.90      -99.90      -99.90      -99.90      -99.90    
   7   -99.90      -99.90      -99.90      -99.90      -99.90      -99.90      -99.90      -99.90      -99.90      -99.90    
       -99.90      -99.90      -99.90      -99.90      -99.90      -99.90      -99.90      -99.90      -99.90      -99.90    
       -99.90      -99.90      -99.90      -99.90      -99.90      -99.90      -99.90      -99.90      -99.90      -99.90    
       -99.90      -99.90      -99.90      -99.90      -99.90      -99.90      -99.90      -99.90      -99.90      -99.90    
   8   -99.90      -99.90      -99.90      -99.90      -99.90      -99.90      -99.90      -99.90      -99.90      -99.90    
       -99.90      -99.90      -99.90      -99.90      -99.90      -99.90      -99.90      -99.90      -99.90      -99.90    
       -99.90      -99.90      -99.90      -99.90      -99.90      -99.90      -99.90      -99.90      -99.90      -99.90    
       -99.90      -99.90      -99.90      -99.90      -99.90      -99.90      -99.90      -99.90      -99.90      -99.90    
   9   -99.90      -99.90      -99.90      -99.90      -99.90      -99.90      -99.90      -99.90      -99.90      -99.90    
       -99.90      -99.90      -99.90      -99.90      -99.90      -99.90      -99.90      -99.90      -99.90      -99.90    
       -99.90      -99.90      -99.90      -99.90      -99.90      -99.90      -99.90      -99.90      -99.90      -99.90    
       -99.90      -99.90      -99.90      -99.90      -99.90      -99.90      -99.90      -99.90      -99.90      -99.90    
  10   -99.90      -99.90      -99.90      -99.90      -99.90      -99.90      -99.90      -99.90      -99.90      -99.90    
       -99.90      -99.90      -99.90      -99.90      -99.90      -99.90      -99.90      -99.90      -99.90      -99.90    
       -99.90      -99.90      -99.90      -99.90      -99.90      -99.90      -99.90      -99.90      -99.90      -99.90    
       -99.90      -99.90      -99.90      -99.90      -99.90      -99.90      -99.90      -99.90      -99.90      -99.90    
  11   -99.90      -99.90      -99.90      -99.90      -99.90      -99.90      -99.90      -99.90      -99.90      -99.90    
       -99.90      -99.90      -99.90      -99.90      -99.90      -99.90      -99.90      -99.90      -99.90      -99.90    
       -99.90      -99.90      -99.90      -99.90      -99.90      -99.90      -99.90      -99.90      -99.90      -99.90    
       -99.90      -99.90      -99.90      -99.90      -99.90      -99.90      -99.90      -99.90      -99.90      -99.90    
  12   -99.90      -99.90      -99.90      -99.90      -99.90      -99.90      -99.90      -99.90      -99.90      -99.90    
       -99.90      -99.90      -99.90      -99.90      -99.90      -99.90      -99.90      -99.90      -99.90      -99.90    
       -99.90      -99.90      -99.90      -99.90      -99.90      -99.90      -99.90      -99.90      -99.90      -99.90    
       -99.90      -99.90      -99.90      -99.90      -99.90      -99.90      -99.90      -99.90      -99.90      -99.90    
  13   -99.90      -99.90      -99.90      -99.90      -99.90      -99.90      -99.90      -99.90      -99.90      -99.90    
       -99.90      -99.90      -99.90      -99.90      -99.90      -99.90      -99.90      -99.90      -99.90      -99.90    
       -99.90      -99.90      -99.90      -99.90      -99.90      -99.90      -99.90      -99.90      -99.90      -99.90    
       -99.90      -99.90      -99.90      -99.90      -99.90      -99.90      -99.90      -99.90      -99.90      -99.90    
  14   -99.90      -99.90      -99.90      -99.90      -99.90      -99.90      -99.90      -99.90      -99.90      -99.90    
       -99.90      -99.90      -99.90      -99.90      -99.90      -99.90      -99.90      -99.90      -99.90      -99.90    
       -99.90      -99.90      -99.90      -99.90      -99.90      -99.90      -99.90      -99.90      -99.90      -99.90    
       -99.90      -99.90      -99.90      -99.90      -99.90      -99.90      -99.90      -99.90      -99.90      -99.90    
  15   -99.90      -99.90      -99.90      -99.90      -99.90      -99.90      -99.90      -99.90      -99.90      -99.90    
       -99.90      -99.90      -99.90      -99.90      -99.90      -99.90      -99.90      -99.90      -99.90      -99.90    
       -99.90      -99.90      -99.90      -99.90      -99.90      -99.90      -99.90      -99.90      -99.90      -99.90    
       -99.90      -99.90      -99.90      -99.90      -99.90      -99.90      -99.90      -99.90      -99.90      -99.90    
  16   -99.90      -99.90      -99.90      -99.90      -99.90      -99.90      -99.90      -99.90      -99.90      -99.90    
       -99.90      -99.90      -99.90      -99.90      -99.90      -99.90      -99.90      -99.90      -99.90      -99.90    
       -99.90      -99.90      -99.90      -99.90      -99.90      -99.90      -99.90      -99.90      -99.90      -99.90    
       -99.90      -99.90      -99.90      -99.90      -99.90      -99.90      -99.90      -99.90      -99.90      -99.90    
  17   -99.90      -99.90      -99.90      -99.90      -99.90      -99.90      -99.90      -99.90      -99.90      -99.90    
       -99.90      -99.90      -99.90      -99.90      -99.90      -99.90      -99.90      -99.90      -99.90      -99.90    
       -99.90      -99.90      -99.90      -99.90      -99.90      -99.90      -99.90      -99.90      -99.90      -99.90    
       -99.90      -99.90      -99.90      -99.90      -99.90      -99.90      -99.90      -99.90      -99.90      -99.90    
  18   -99.90      -99.90      -99.90      -99.90      -99.90      -99.90      -99.90      -99.90      -99.90      -99.90    
       -99.90      -99.90      -99.90      -99.90      -99.90      -99.90      -99.90      -99.90      -99.90      -99.90    
       -99.90      -99.90      -99.90      -99.90      -99.90      -99.90      -99.90      -99.90      -99.90      -99.90    
       -99.90      -99.90      -99.90      -99.90      -99.90      -99.90      -99.90      -99.90      -99.90      -99.90    
  19   -99.90      -99.90      -99.90      -99.90      -99.90      -99.90      -99.90      -99.90      -99.90      -99.90    
       -99.90      -99.90      -99.90      -99.90      -99.90      -99.90      -99.90      -99.90      -99.90      -99.90    
       -99.90      -99.90      -99.90      -99.90      -99.90      -99.90      -99.90      -99.90      -99.90      -99.90    
       -99.90      -99.90      -99.90      -99.90      -99.90      -99.90      -99.90      -99.90      -99.90      -99.90    
  20   -99.90      -99.90      -99.90      -99.90      -99.90      -99.90      -99.90      -99.90      -99.90      -99.90    
       -99.90      -99.90      -99.90      -99.90      -99.90      -99.90      -99.90      -99.90      -99.90      -99.90    
       -99.90      -99.90      -99.90      -99.90      -99.90      -99.90      -99.90      -99.90      -99.90      -99.90    
       -99.90      -99.90      -99.90      -99.90      -99.90      -99.90      -99.90      -99.90      -99.90      -99.90    
  21   -99.90      -99.90      -99.90      -99.90      -99.90      -99.90      -99.90      -99.90      -99.90      -99.90    
       -99.90      -99.90      -99.90      -99.90      -99.90      -99.90      -99.90      -99.90      -99.90      -99.90    
       -99.90      -99.90      -99.90      -99.90      -99.90      -99.90      -99.90      -99.90      -99.90      -99.90    
       -99.90      -99.90      -99.90      -99.90      -99.90      -99.90      -99.90      -99.90      -99.90      -99.90    
  22   -99.90      -99.90      -99.90      -99.90      -99.90      -99.90      -99.90      -99.90      -99.90      -99.90    
       -99.90      -99.90      -99.90      -99.90      -99.90      -99.90      -99.90      -99.90      -99.90      -99.90    
       -99.90      -99.90      -99.90      -99.90      -99.90      -99.90      -99.90      -99.90      -99.90      -99.90    
       -99.90      -99.90      -99.90      -99.90      -99.90      -99.90      -99.90      -99.90      -99.90      -99.90    
  23   -99.90      -99.90      -99.90      -99.90      -99.90      -99.90      -99.90      -99.90      -99.90      -99.90    
       -99.90      -99.90      -99.90      -99.90      -99.90      -99.90      -99.90      -99.90      -99.90      -99.90    
       -99.90      -99.90      -99.90      -99.90      -99.90      -99.90      -99.90      -99.90      -99.90      -99.90    
       -99.90      -99.90      -99.90      -99.90      -99.90      -99.90      -99.90      -99.90      -99.90      -99.90    
  24   -99.90      -99.90      -99.90      -99.90      -99.90      -99.90      -99.90      -99.90      -99.90      -99.90    
       -99.90      -99.90      -99.90      -99.90      -99.90      -99.90      -99.90      -99.90      -99.90      -99.90    
       -99.90      -99.90      -99.90      -99.90      -99.90      -99.90      -99.90      -99.90      -99.90      -99.90    
       -99.90      -99.90      -99.90      -99.90      -99.90      -99.90      -99.90      -99.90      -99.90      -99.90    
  25   -99.90      -99.90      -99.90      -99.90      -99.90      -99.90      -99.90      -99.90      -99.90      -99.90    
       -99.90      -99.90      -99.90      -99.90      -99.90      -99.90      -99.90      -99.90      -99.90      -99.90    
       -99.90      -99.90      -99.90      -99.90      -99.90      -99.90      -99.90      -99.90      -99.90      -99.90    
       -99.90      -99.90      -99.90      -99.90      -99.90      -99.90      -99.90      -99.90      -99.90      -99.90    
  26   -99.90      -99.90      -99.90      -99.90      -99.90      -99.90      -99.90      -99.90      -99.90      -99.90    
       -99.90      -99.90      -99.90      -99.90      -99.90      -99.90      -99.90      -99.90      -99.90      -99.90    
       -99.90      -99.90      -99.90      -99.90      -99.90      -99.90      -99.90      -99.90      -99.90      -99.90    
       -99.90      -99.90      -99.90      -99.90      -99.90      -99.90      -99.90      -99.90      -99.90      -99.90    
  27   -99.90      -99.90      -99.90      -99.90      -99.90      -99.90      -99.90      -99.90      -99.90      -99.90    
       -99.90      -99.90      -99.90      -99.90      -99.90      -99.90      -99.90      -99.90      -99.90      -99.90    
       -99.90      -99.90      -99.90      -99.90      -99.90      -99.90      -99.90      -99.90      -99.90      -99.90    
       -99.90      -99.90      -99.90      -99.90      -99.90      -99.90      -99.90      -99.90      -99.90      -99.90    
  28   -99.90      -99.90      -99.90      -99.90      -99.90      -99.90      -99.90      -99.90      -99.90      -99.90    
       -99.90      -99.90      -99.90      -99.90      -99.90      -99.90      -99.90      -99.90      -99.90      -99.90    
       -99.90      -99.90      -99.90      -99.90      -99.90      -99.90      -99.90      -99.90      -99.90      -99.90    
       -99.90      -99.90      -99.90      -99.90      -99.90      -99.90      -99.90      -99.90      -99.90      -99.90    
  29   -99.90      -99.90      -99.90      -99.90      -99.90      -99.90      -99.90      -99.90      -99.90      -99.90    
       -99.90      -99.90      -99.90      -99.90      -99.90      -99.90      -99.90      -99.90      -99.90      -99.90    
       -99.90      -99.90      -99.90      -99.90      -99.90      -99.90      -99.90      -99.90      -99.90      -99.90    
       -99.90      -99.90      -99.90      -99.90      -99.90      -99.90      -99.90      -99.90      -99.90      -99.90    
  30   -99.90      -99.90      -99.90      -99.90      -99.90      -99.90      -99.90      -99.90      -99.90      -99.90    
       -99.90      -99.90      -99.90      -99.90      -99.90      -99.90      -99.90      -99.90      -99.90      -99.90    
       -99.90      -99.90      -99.90      -99.90      -99.90      -99.90      -99.90      -99.90      -99.90      -99.90    
       -99.90      -99.90      -99.90      -99.90      -99.90      -99.90      -99.90      -99.90      -99.90      -99.90    
  31   -99.90      -99.90      -99.90      -99.90      -99.90      -99.90      -99.90      -99.90      -99.90      -99.90    
       -99.90      -99.90      -99.90      -99.90      -99.90      -99.90      -99.90      -99.90      -99.90      -99.90    
       -99.90      -99.90      -99.90      -99.90      -99.90      -99.90      -99.90      -99.90      -99.90      -99.90    
       -99.90      -99.90      -99.90      -99.90      -99.90      -99.90      -99.90      -99.90      -99.90      -99.90    
  32   -99.90      -99.90      -99.90      -99.90      -99.90      -99.90      -99.90      -99.90      -99.90      -99.90    
       -99.90      -99.90      -99.90      -99.90      -99.90      -99.90      -99.90      -99.90      -99.90      -99.90    
       -99.90      -99.90      -99.90      -99.90      -99.90      -99.90      -99.90      -99.90      -99.90      -99.90    
       -99.90      -99.90      -99.90      -99.90      -99.90      -99.90      -99.90      -99.90      -99.90      -99.90    
  33   -99.90      -99.90      -99.90      -99.90      -99.90      -99.90      -99.90      -99.90      -99.90      -99.90    
       -99.90      -99.90      -99.90      -99.90      -99.90      -99.90      -99.90      -99.90      -99.90      -99.90    
       -99.90      -99.90      -99.90      -99.90      -99.90      -99.90      -99.90      -99.90      -99.90      -99.90    
       -99.90      -99.90      -99.90      -99.90      -99.90      -99.90      -99.90      -99.90      -99.90      -99.90    
  34   -99.90      -99.90      -99.90      -99.90      -99.90      -99.90      -99.90      -99.90      -99.90      -99.90    
       -99.90      -99.90      -99.90      -99.90      -99.90      -99.90      -99.90      -99.90      -99.90      -99.90    
       -99.90      -99.90      -99.90      -99.90      -99.90      -99.90      -99.90      -99.90      -99.90      -99.90    
       -99.90      -99.90      -99.90      -99.90      -99.90      -99.90      -99.90      -99.90      -99.90      -99.90    
  35   -99.90      -99.90      -99.90      -99.90      -99.90      -99.90      -99.90      -99.90      -99.90      -99.90    
       -99.90      -99.90      -99.90      -99.90      -99.90      -99.90      -99.90      -99.90      -99.90      -99.90    
       -99.90      -99.90      -99.90      -99.90      -99.90      -99.90      -99.90      -99.90      -99.90      -99.90    
       -99.90      -99.90      -99.90      -99.90      -99.90      -99.90      -99.90      -99.90      -99.90      -99.90    
  36   -99.90      -99.90      -99.90      -99.90      -99.90      -99.90      -99.90      -99.90      -99.90      -99.90    
       -99.90      -99.90      -99.90      -99.90      -99.90      -99.90      -99.90      -99.90      -99.90      -99.90    
       -99.90      -99.90      -99.90      -99.90      -99.90      -99.90      -99.90      -99.90      -99.90      -99.90    
       -99.90      -99.90      -99.90      -99.90      -99.90      -99.90      -99.90      -99.90      -99.90      -99.90    
  37   -99.90      -99.90      -99.90      -99.90      -99.90      -99.90      -99.90      -99.90      -99.90      -99.90    
       -99.90      -99.90      -99.90      -99.90      -99.90      -99.90      -99.90      -99.90      -99.90      -99.90    
       -99.90      -99.90      -99.90      -99.90      -99.90      -99.90      -99.90      -99.90      -99.90      -99.90    
       -99.90      -99.90      -99.90      -99.90      -99.90      -99.90      -99.90      -99.90      -99.90      -99.90    
  38   -99.90      -99.90      -99.90      -99.90      -99.90      -99.90      -99.90      -99.90      -99.90      -99.90    
       -99.90      -99.90      -99.90      -99.90      -99.90      -99.90      -99.90      -99.90      -99.90      -99.90    
       -99.90      -99.90      -99.90      -99.90      -99.90      -99.90      -99.90      -99.90      -99.90      -99.90    
       -99.90      -99.90      -99.90      -99.90      -99.90      -99.90      -99.90      -99.90      -99.90      -99.90    
  39   -99.90      -99.90      -99.90      -99.90      -99.90      -99.90      -99.90      -99.90      -99.90      -99.90    
       -99.90      -99.90      -99.90      -99.90      -99.90      -99.90      -99.90      -99.90      -99.90      -99.90    
       -99.90      -99.90      -99.90      -99.90      -99.90      -99.90      -99.90      -99.90      -99.90      -99.90    
       -99.90      -99.90      -99.90      -99.90      -99.90      -99.90      -99.90      -99.90      -99.90      -99.90    
  40   -99.90      -99.90      -99.90      -99.90      -99.90      -99.90      -99.90      -99.90      -99.90      -99.90    
       -99.90      -99.90      -99.90      -99.90      -99.90      -99.90      -99.90      -99.90      -99.90      -99.90    
       -99.90      -99.90      -99.90      -99.90      -99.90      -99.90      -99.90      -99.90      -99.90      -99.90    
       -99.90      -99.90      -99.90      -99.90      -99.90      -99.90      -99.90      -99.90      -99.90      -99.90    
1
              HEAD IN LAYER 7 AT END OF TIME STEP 1 IN STRESS PERIOD 1
  ---------------------------------------------------------------------------

            1           2           3           4           5           6           7           8           9          10
           11          12          13          14          15          16          17          18          19          20
           21          22          23          24          25          26          27          28          29          30
           31          32          33          34          35          36          37          38          39          40
 ........................................................................................................................
   1   -99.90      -99.90      -99.90      -99.90      -99.90      -99.90      -99.90      -99.90      -99.90      -99.90    
       -99.90      -99.90      -99.90      -99.90      -99.90      -99.90      -99.90      -99.90      -99.90      -99.90    
       -99.90      -99.90      -99.90      -99.90      -99.90      -99.90      -99.90      -99.90      -99.90      -99.90    
       -99.90      -99.90      -99.90      -99.90      -99.90      -99.90      -99.90      -99.90      -99.90      -99.90    
   2   -99.90      -99.90      -99.90      -99.90      -99.90      -99.90      -99.90      -99.90      -99.90      -99.90    
       -99.90      -99.90      -99.90      -99.90      -99.90      -99.90      -99.90      -99.90      -99.90      -99.90    
       -99.90      -99.90      -99.90      -99.90      -99.90      -99.90      -99.90      -99.90      -99.90      -99.90    
       -99.90      -99.90      -99.90      -99.90      -99.90      -99.90      -99.90      -99.90      -99.90      -99.90    
   3   -99.90      -99.90      -99.90      -99.90      -99.90      -99.90      -99.90      -99.90      -99.90      -99.90    
       -99.90      -99.90      -99.90      -99.90      -99.90      -99.90      -99.90      -99.90      -99.90      -99.90    
       -99.90      -99.90      -99.90      -99.90      -99.90      -99.90      -99.90      -99.90      -99.90      -99.90    
       -99.90      -99.90      -99.90      -99.90      -99.90      -99.90      -99.90      -99.90      -99.90      -99.90    
   4   -99.90      -99.90      -99.90      -99.90      -99.90      -99.90      -99.90      -99.90      -99.90      -99.90    
       -99.90      -99.90      -99.90      -99.90      -99.90      -99.90      -99.90      -99.90      -99.90      -99.90    
       -99.90      -99.90      -99.90      -99.90      -99.90      -99.90      -99.90      -99.90      -99.90      -99.90    
       -99.90      -99.90      -99.90      -99.90      -99.90      -99.90      -99.90      -99.90      -99.90      -99.90    
   5   -99.90      -99.90      -99.90      -99.90      -99.90      -99.90      -99.90      -99.90      -99.90      -99.90    
       -99.90      -99.90      -99.90      -99.90      -99.90      -99.90      -99.90      -99.90      -99.90      -99.90    
       -99.90      -99.90      -99.90      -99.90      -99.90      -99.90      -99.90      -99.90      -99.90      -99.90    
       -99.90      -99.90      -99.90      -99.90      -99.90      -99.90      -99.90      -99.90      -99.90      -99.90    
   6   -99.90      -99.90      -99.90      -99.90      -99.90      -99.90      -99.90      -99.90      -99.90      -99.90    
       -99.90      -99.90      -99.90      -99.90      -99.90      -99.90      -99.90      -99.90      -99.90      -99.90    
       -99.90      -99.90      -99.90      -99.90      -99.90      -99.90      -99.90      -99.90      -99.90      -99.90    
       -99.90      -99.90      -99.90      -99.90      -99.90      -99.90      -99.90      -99.90      -99.90      -99.90    
   7   -99.90      -99.90      -99.90      -99.90      -99.90      -99.90      -99.90      -99.90      -99.90      -99.90    
       -99.90      -99.90      -99.90      -99.90      -99.90      -99.90      -99.90      -99.90      -99.90      -99.90    
       -99.90      -99.90      -99.90      -99.90      -99.90      -99.90      -99.90      -99.90      -99.90      -99.90    
       -99.90      -99.90      -99.90      -99.90      -99.90      -99.90      -99.90      -99.90      -99.90      -99.90    
   8   -99.90      -99.90      -99.90      -99.90      -99.90      -99.90      -99.90      -99.90      -99.90      -99.90    
       -99.90      -99.90      -99.90      -99.90      -99.90      -99.90      -99.90      -99.90      -99.90      -99.90    
       -99.90      -99.90      -99.90      -99.90      -99.90      -99.90      -99.90      -99.90      -99.90      -99.90    
       -99.90      -99.90      -99.90      -99.90      -99.90      -99.90      -99.90      -99.90      -99.90      -99.90    
   9   -99.90      -99.90      -99.90      -99.90      -99.90      -99.90      -99.90      -99.90      -99.90      -99.90    
       -99.90      -99.90      -99.90      -99.90      -99.90      -99.90      -99.90      -99.90      -99.90      -99.90    
       -99.90      -99.90      -99.90      -99.90      -99.90      -99.90      -99.90      -99.90      -99.90      -99.90    
       -99.90      -99.90      -99.90      -99.90      -99.90      -99.90      -99.90      -99.90      -99.90      -99.90    
  10   -99.90      -99.90      -99.90      -99.90      -99.90      -99.90      -99.90      -99.90      -99.90      -99.90    
       -99.90      -99.90      -99.90      -99.90      -99.90      -99.90      -99.90      -99.90      -99.90      -99.90    
       -99.90      -99.90      -99.90      -99.90      -99.90      -99.90      -99.90      -99.90      -99.90      -99.90    
       -99.90      -99.90      -99.90      -99.90      -99.90      -99.90      -99.90      -99.90      -99.90      -99.90    
  11   -99.90      -99.90      -99.90      -99.90      -99.90      -99.90      -99.90      -99.90      -99.90      -99.90    
       -99.90      -99.90      -99.90      -99.90      -99.90      -99.90      -99.90      -99.90      -99.90      -99.90    
       -99.90      -99.90      -99.90      -99.90      -99.90      -99.90      -99.90      -99.90      -99.90      -99.90    
       -99.90      -99.90      -99.90      -99.90      -99.90      -99.90      -99.90      -99.90      -99.90      -99.90    
  12   -99.90      -99.90      -99.90      -99.90      -99.90      -99.90      -99.90      -99.90      -99.90      -99.90    
       -99.90      -99.90      -99.90      -99.90      -99.90      -99.90      -99.90      -99.90      -99.90      -99.90    
       -99.90      -99.90      -99.90      -99.90      -99.90      -99.90      -99.90      -99.90      -99.90      -99.90    
       -99.90      -99.90      -99.90      -99.90      -99.90      -99.90      -99.90      -99.90      -99.90      -99.90    
  13   -99.90      -99.90      -99.90      -99.90      -99.90      -99.90      -99.90      -99.90      -99.90      -99.90    
       -99.90      -99.90      -99.90      -99.90      -99.90      -99.90      -99.90      -99.90      -99.90      -99.90    
       -99.90      -99.90      -99.90      -99.90      -99.90      -99.90      -99.90      -99.90      -99.90      -99.90    
       -99.90      -99.90      -99.90      -99.90      -99.90      -99.90      -99.90      -99.90      -99.90      -99.90    
  14   -99.90      -99.90      -99.90      -99.90      -99.90      -99.90      -99.90      -99.90      -99.90      -99.90    
       -99.90      -99.90      -99.90      -99.90      -99.90      -99.90      -99.90      -99.90      -99.90      -99.90    
       -99.90      -99.90      -99.90      -99.90      -99.90      -99.90      -99.90      -99.90      -99.90      -99.90    
       -99.90      -99.90      -99.90      -99.90      -99.90      -99.90      -99.90      -99.90      -99.90      -99.90    
  15   -99.90      -99.90      -99.90      -99.90      -99.90      -99.90      -99.90      -99.90      -99.90      -99.90    
       -99.90      -99.90      -99.90      -99.90      -99.90      -99.90      -99.90      -99.90      -99.90      -99.90    
       -99.90      -99.90      -99.90      -99.90      -99.90      -99.90      -99.90      -99.90      -99.90      -99.90    
       -99.90      -99.90      -99.90      -99.90      -99.90      -99.90      -99.90      -99.90      -99.90      -99.90    
  16   -99.90      -99.90      -99.90      -99.90      -99.90      -99.90      -99.90      -99.90      -99.90      -99.90    
       -99.90      -99.90      -99.90      -99.90      -99.90      -99.90      -99.90      -99.90      -99.90      -99.90    
       -99.90      -99.90      -99.90      -99.90      -99.90      -99.90      -99.90      -99.90      -99.90      -99.90    
       -99.90      -99.90      -99.90      -99.90      -99.90      -99.90      -99.90      -99.90      -99.90      -99.90    
  17   -99.90      -99.90      -99.90      -99.90      -99.90      -99.90      -99.90      -99.90      -99.90      -99.90    
       -99.90      -99.90      -99.90      -99.90      -99.90      -99.90      -99.90      -99.90      -99.90      -99.90    
       -99.90      -99.90      -99.90      -99.90      -99.90      -99.90      -99.90      -99.90      -99.90      -99.90    
       -99.90      -99.90      -99.90      -99.90      -99.90      -99.90      -99.90      -99.90      -99.90      -99.90    
  18   -99.90      -99.90      -99.90      -99.90      -99.90      -99.90      -99.90      -99.90      -99.90      -99.90    
       -99.90      -99.90      -99.90      -99.90      -99.90      -99.90      -99.90      -99.90      -99.90      -99.90    
       -99.90      -99.90      -99.90      -99.90      -99.90      -99.90      -99.90      -99.90      -99.90      -99.90    
       -99.90      -99.90      -99.90      -99.90      -99.90      -99.90      -99.90      -99.90      -99.90      -99.90    
  19   -99.90      -99.90      -99.90      -99.90      -99.90      -99.90      -99.90      -99.90      -99.90      -99.90    
       -99.90      -99.90      -99.90      -99.90      -99.90      -99.90      -99.90      -99.90      -99.90      -99.90    
       -99.90      -99.90      -99.90      -99.90      -99.90      -99.90      -99.90      -99.90      -99.90      -99.90    
       -99.90      -99.90      -99.90      -99.90      -99.90      -99.90      -99.90      -99.90      -99.90      -99.90    
  20   -99.90      -99.90      -99.90      -99.90      -99.90      -99.90      -99.90      -99.90      -99.90      -99.90    
       -99.90      -99.90      -99.90      -99.90      -99.90      -99.90      -99.90      -99.90      -99.90      -99.90    
       -99.90      -99.90      -99.90      -99.90      -99.90      -99.90      -99.90      -99.90      -99.90      -99.90    
       -99.90      -99.90      -99.90      -99.90      -99.90      -99.90      -99.90      -99.90      -99.90      -99.90    
  21   -99.90      -99.90      -99.90      -99.90      -99.90      -99.90      -99.90      -99.90      -99.90      -99.90    
       -99.90      -99.90      -99.90      -99.90      -99.90      -99.90      -99.90      -99.90      -99.90      -99.90    
       -99.90      -99.90      -99.90      -99.90      -99.90      -99.90      -99.90      -99.90      -99.90      -99.90    
       -99.90      -99.90      -99.90      -99.90      -99.90      -99.90      -99.90      -99.90      -99.90      -99.90    
  22   -99.90      -99.90      -99.90      -99.90      -99.90      -99.90      -99.90      -99.90      -99.90      -99.90    
       -99.90      -99.90      -99.90      -99.90      -99.90      -99.90      -99.90      -99.90      -99.90      -99.90    
       -99.90      -99.90      -99.90      -99.90      -99.90      -99.90      -99.90      -99.90      -99.90      -99.90    
       -99.90      -99.90      -99.90      -99.90      -99.90      -99.90      -99.90      -99.90      -99.90      -99.90    
  23   -99.90      -99.90      -99.90      -99.90      -99.90      -99.90      -99.90      -99.90      -99.90      -99.90    
       -99.90      -99.90      -99.90      -99.90      -99.90      -99.90      -99.90      -99.90      -99.90      -99.90    
       -99.90      -99.90      -99.90      -99.90      -99.90      -99.90      -99.90      -99.90      -99.90      -99.90    
       -99.90      -99.90      -99.90      -99.90      -99.90      -99.90      -99.90      -99.90      -99.90      -99.90    
  24   -99.90      -99.90      -99.90      -99.90      -99.90      -99.90      -99.90      -99.90      -99.90      -99.90    
       -99.90      -99.90      -99.90      -99.90      -99.90      -99.90      -99.90      -99.90      -99.90      -99.90    
       -99.90      -99.90      -99.90      -99.90      -99.90      -99.90      -99.90      -99.90      -99.90      -99.90    
       -99.90      -99.90      -99.90      -99.90      -99.90      -99.90      -99.90      -99.90      -99.90      -99.90    
  25   -99.90      -99.90      -99.90      -99.90      -99.90      -99.90      -99.90      -99.90      -99.90      -99.90    
       -99.90      -99.90      -99.90      -99.90      -99.90      -99.90      -99.90      -99.90      -99.90      -99.90    
       -99.90      -99.90      -99.90      -99.90      -99.90      -99.90      -99.90      -99.90      -99.90      -99.90    
       -99.90      -99.90      -99.90      -99.90      -99.90      -99.90      -99.90      -99.90      -99.90      -99.90    
  26   -99.90      -99.90      -99.90      -99.90      -99.90      -99.90      -99.90      -99.90      -99.90      -99.90    
       -99.90      -99.90      -99.90      -99.90      -99.90      -99.90      -99.90      -99.90      -99.90      -99.90    
       -99.90      -99.90      -99.90      -99.90      -99.90      -99.90      -99.90      -99.90      -99.90      -99.90    
       -99.90      -99.90      -99.90      -99.90      -99.90      -99.90      -99.90      -99.90      -99.90      -99.90    
  27   -99.90      -99.90      -99.90      -99.90      -99.90      -99.90      -99.90      -99.90      -99.90      -99.90    
       -99.90      -99.90      -99.90      -99.90      -99.90      -99.90      -99.90      -99.90      -99.90      -99.90    
       -99.90      -99.90      -99.90      -99.90      -99.90      -99.90      -99.90      -99.90      -99.90      -99.90    
       -99.90      -99.90      -99.90      -99.90      -99.90      -99.90      -99.90      -99.90      -99.90      -99.90    
  28   -99.90      -99.90      -99.90      -99.90      -99.90      -99.90      -99.90      -99.90      -99.90      -99.90    
       -99.90      -99.90      -99.90      -99.90      -99.90      -99.90      -99.90      -99.90      -99.90      -99.90    
       -99.90      -99.90      -99.90      -99.90      -99.90      -99.90      -99.90      -99.90      -99.90      -99.90    
       -99.90      -99.90      -99.90      -99.90      -99.90      -99.90      -99.90      -99.90      -99.90      -99.90    
  29   -99.90      -99.90      -99.90      -99.90      -99.90      -99.90      -99.90      -99.90      -99.90      -99.90    
       -99.90      -99.90      -99.90      -99.90      -99.90      -99.90      -99.90      -99.90      -99.90      -99.90    
       -99.90      -99.90      -99.90      -99.90      -99.90      -99.90      -99.90      -99.90      -99.90      -99.90    
       -99.90      -99.90      -99.90      -99.90      -99.90      -99.90      -99.90      -99.90      -99.90      -99.90    
  30   -99.90      -99.90      -99.90      -99.90      -99.90      -99.90      -99.90      -99.90      -99.90      -99.90    
       -99.90      -99.90      -99.90      -99.90      -99.90      -99.90      -99.90      -99.90      -99.90      -99.90    
       -99.90      -99.90      -99.90      -99.90      -99.90      -99.90      -99.90      -99.90      -99.90      -99.90    
       -99.90      -99.90      -99.90      -99.90      -99.90      -99.90      -99.90      -99.90      -99.90      -99.90    
  31   -99.90      -99.90      -99.90      -99.90      -99.90      -99.90      -99.90      -99.90      -99.90      -99.90    
       -99.90      -99.90      -99.90      -99.90      -99.90      -99.90      -99.90      -99.90      -99.90      -99.90    
       -99.90      -99.90      -99.90      -99.90      -99.90      -99.90      -99.90      -99.90      -99.90      -99.90    
       -99.90      -99.90      -99.90      -99.90      -99.90      -99.90      -99.90      -99.90      -99.90      -99.90    
  32   -99.90      -99.90      -99.90      -99.90      -99.90      -99.90      -99.90      -99.90      -99.90      -99.90    
       -99.90      -99.90      -99.90      -99.90      -99.90      -99.90      -99.90      -99.90      -99.90      -99.90    
       -99.90      -99.90      -99.90      -99.90      -99.90      -99.90      -99.90      -99.90      -99.90      -99.90    
       -99.90      -99.90      -99.90      -99.90      -99.90      -99.90      -99.90      -99.90      -99.90      -99.90    
  33   -99.90      -99.90      -99.90      -99.90      -99.90      -99.90      -99.90      -99.90      -99.90      -99.90    
       -99.90      -99.90      -99.90      -99.90      -99.90      -99.90      -99.90      -99.90      -99.90      -99.90    
       -99.90      -99.90      -99.90      -99.90      -99.90      -99.90      -99.90      -99.90      -99.90      -99.90    
       -99.90      -99.90      -99.90      -99.90      -99.90      -99.90      -99.90      -99.90      -99.90      -99.90    
  34   -99.90      -99.90      -99.90      -99.90      -99.90      -99.90      -99.90      -99.90      -99.90      -99.90    
       -99.90      -99.90      -99.90      -99.90      -99.90      -99.90      -99.90      -99.90      -99.90      -99.90    
       -99.90      -99.90      -99.90      -99.90      -99.90      -99.90      -99.90      -99.90      -99.90      -99.90    
       -99.90      -99.90      -99.90      -99.90      -99.90      -99.90      -99.90      -99.90      -99.90      -99.90    
  35   -99.90      -99.90      -99.90      -99.90      -99.90      -99.90      -99.90      -99.90      -99.90      -99.90    
       -99.90      -99.90      -99.90      -99.90      -99.90      -99.90      -99.90      -99.90      -99.90      -99.90    
       -99.90      -99.90      -99.90      -99.90      -99.90      -99.90      -99.90      -99.90      -99.90      -99.90    
       -99.90      -99.90      -99.90      -99.90      -99.90      -99.90      -99.90      -99.90      -99.90      -99.90    
  36   -99.90      -99.90      -99.90      -99.90      -99.90      -99.90      -99.90      -99.90      -99.90      -99.90    
       -99.90      -99.90      -99.90      -99.90      -99.90      -99.90      -99.90      -99.90      -99.90      -99.90    
       -99.90      -99.90      -99.90      -99.90      -99.90      -99.90      -99.90      -99.90      -99.90      -99.90    
       -99.90      -99.90      -99.90      -99.90      -99.90      -99.90      -99.90      -99.90      -99.90      -99.90    
  37   -99.90      -99.90      -99.90      -99.90      -99.90      -99.90      -99.90      -99.90      -99.90      -99.90    
       -99.90      -99.90      -99.90      -99.90      -99.90      -99.90      -99.90      -99.90      -99.90      -99.90    
       -99.90      -99.90      -99.90      -99.90      -99.90      -99.90      -99.90      -99.90      -99.90      -99.90    
       -99.90      -99.90      -99.90      -99.90      -99.90      -99.90      -99.90      -99.90      -99.90      -99.90    
  38   -99.90      -99.90      -99.90      -99.90      -99.90      -99.90      -99.90      -99.90      -99.90      -99.90    
       -99.90      -99.90      -99.90      -99.90      -99.90      -99.90      -99.90      -99.90      -99.90      -99.90    
       -99.90      -99.90      -99.90      -99.90      -99.90      -99.90      -99.90      -99.90      -99.90      -99.90    
       -99.90      -99.90      -99.90      -99.90      -99.90      -99.90      -99.90      -99.90      -99.90      -99.90    
  39   -99.90      -99.90      -99.90      -99.90      -99.90      -99.90      -99.90      -99.90      -99.90      -99.90    
       -99.90      -99.90      -99.90      -99.90      -99.90      -99.90      -99.90      -99.90      -99.90      -99.90    
       -99.90      -99.90      -99.90      -99.90      -99.90      -99.90      -99.90      -99.90      -99.90      -99.90    
       -99.90      -99.90      -99.90      -99.90      -99.90      -99.90      -99.90      -99.90      -99.90      -99.90    
  40   -99.90      -99.90      -99.90      -99.90      -99.90      -99.90      -99.90      -99.90      -99.90      -99.90    
       -99.90      -99.90      -99.90      -99.90      -99.90      -99.90      -99.90      -99.90      -99.90      -99.90    
       -99.90      -99.90      -99.90      -99.90      -99.90      -99.90      -99.90      -99.90      -99.90      -99.90    
       -99.90      -99.90      -99.90      -99.90      -99.90      -99.90      -99.90      -99.90      -99.90      -99.90    
1
              HEAD IN LAYER 8 AT END OF TIME STEP 1 IN STRESS PERIOD 1
  ---------------------------------------------------------------------------

            1           2           3           4           5           6           7           8           9          10
           11          12          13          14          15          16          17          18          19          20
           21          22          23          24          25          26          27          28          29          30
           31          32          33          34          35          36          37          38          39          40
 ........................................................................................................................
   1   -99.90      -99.90      -99.90      -99.90      -99.90      -99.90      -99.90      -99.90      -99.90      -99.90    
       -99.90      -99.90      -99.90      -99.90      -99.90      -99.90      -99.90      -99.90      -99.90      -99.90    
       -99.90      -99.90      -99.90      -99.90      -99.90      -99.90      -99.90      -99.90      -99.90      -99.90    
       -99.90      -99.90      -99.90      -99.90      -99.90      -99.90      -99.90      -99.90      -99.90      -99.90    
   2   -99.90      -99.90      -99.90      -99.90      -99.90      -99.90      -99.90      -99.90      -99.90      -99.90    
       -99.90      -99.90      -99.90      -99.90      -99.90      -99.90      -99.90      -99.90      -99.90      -99.90    
       -99.90      -99.90      -99.90      -99.90      -99.90      -99.90      -99.90      -99.90      -99.90      -99.90    
       -99.90      -99.90      -99.90      -99.90      -99.90      -99.90      -99.90      -99.90      -99.90      -99.90    
   3   -99.90      -99.90      -99.90      -99.90      -99.90      -99.90      -99.90      -99.90      -99.90      -99.90    
       -99.90      -99.90      -99.90      -99.90      -99.90      -99.90      -99.90      -99.90      -99.90      -99.90    
       -99.90      -99.90      -99.90      -99.90      -99.90      -99.90      -99.90      -99.90      -99.90      -99.90    
       -99.90      -99.90      -99.90      -99.90      -99.90      -99.90      -99.90      -99.90      -99.90      -99.90    
   4   -99.90      -99.90      -99.90      -99.90      -99.90      -99.90      -99.90      -99.90      -99.90      -99.90    
       -99.90      -99.90      -99.90      -99.90      -99.90      -99.90      -99.90      -99.90      -99.90      -99.90    
       -99.90      -99.90      -99.90      -99.90      -99.90      -99.90      -99.90      -99.90      -99.90      -99.90    
       -99.90      -99.90      -99.90      -99.90      -99.90      -99.90      -99.90      -99.90      -99.90      -99.90    
   5   -99.90      -99.90      -99.90      -99.90      -99.90      -99.90      -99.90      -99.90      -99.90      -99.90    
       -99.90      -99.90      -99.90      -99.90      -99.90      -99.90      -99.90      -99.90      -99.90      -99.90    
       -99.90      -99.90      -99.90      -99.90      -99.90      -99.90      -99.90      -99.90      -99.90      -99.90    
       -99.90      -99.90      -99.90      -99.90      -99.90      -99.90      -99.90      -99.90      -99.90      -99.90    
   6   -99.90      -99.90      -99.90      -99.90      -99.90      -99.90      -99.90      -99.90      -99.90      -99.90    
       -99.90      -99.90      -99.90      -99.90      -99.90      -99.90      -99.90      -99.90      -99.90      -99.90    
       -99.90      -99.90      -99.90      -99.90      -99.90      -99.90      -99.90      -99.90      -99.90      -99.90    
       -99.90      -99.90      -99.90      -99.90      -99.90      -99.90      -99.90      -99.90      -99.90      -99.90    
   7   -99.90      -99.90      -99.90      -99.90      -99.90      -99.90      -99.90      -99.90      -99.90      -99.90    
       -99.90      -99.90      -99.90      -99.90      -99.90      -99.90      -99.90      -99.90      -99.90      -99.90    
       -99.90      -99.90      -99.90      -99.90      -99.90      -99.90      -99.90      -99.90      -99.90      -99.90    
       -99.90      -99.90      -99.90      -99.90      -99.90      -99.90      -99.90      -99.90      -99.90      -99.90    
   8   -99.90      -99.90      -99.90      -99.90      -99.90      -99.90      -99.90      -99.90      -99.90      -99.90    
       -99.90      -99.90      -99.90      -99.90      -99.90      -99.90      -99.90      -99.90      -99.90      -99.90    
       -99.90      -99.90      -99.90      -99.90      -99.90      -99.90      -99.90      -99.90      -99.90      -99.90    
       -99.90      -99.90      -99.90      -99.90      -99.90      -99.90      -99.90      -99.90      -99.90      -99.90    
   9   -99.90      -99.90      -99.90      -99.90      -99.90      -99.90      -99.90      -99.90      -99.90      -99.90    
       -99.90      -99.90      -99.90      -99.90      -99.90      -99.90      -99.90      -99.90      -99.90      -99.90    
       -99.90      -99.90      -99.90      -99.90      -99.90      -99.90      -99.90      -99.90      -99.90      -99.90    
       -99.90      -99.90      -99.90      -99.90      -99.90      -99.90      -99.90      -99.90      -99.90      -99.90    
  10   -99.90      -99.90      -99.90      -99.90      -99.90      -99.90      -99.90      -99.90      -99.90      -99.90    
       -99.90      -99.90      -99.90      -99.90      -99.90      -99.90      -99.90      -99.90      -99.90      -99.90    
       -99.90      -99.90      -99.90      -99.90      -99.90      -99.90      -99.90      -99.90      -99.90      -99.90    
       -99.90      -99.90      -99.90      -99.90      -99.90      -99.90      -99.90      -99.90      -99.90      -99.90    
  11   -99.90      -99.90      -99.90      -99.90      -99.90      -99.90      -99.90      -99.90      -99.90      -99.90    
       -99.90      -99.90      -99.90      -99.90      -99.90      -99.90      -99.90      -99.90      -99.90      -99.90    
       -99.90      -99.90      -99.90      -99.90      -99.90      -99.90      -99.90      -99.90      -99.90      -99.90    
       -99.90      -99.90      -99.90      -99.90      -99.90      -99.90      -99.90      -99.90      -99.90      -99.90    
  12   -99.90      -99.90      -99.90      -99.90      -99.90      -99.90      -99.90      -99.90      -99.90      -99.90    
       -99.90      -99.90      -99.90      -99.90      -99.90      -99.90      -99.90      -99.90      -99.90      -99.90    
       -99.90      -99.90      -99.90      -99.90      -99.90      -99.90      -99.90      -99.90      -99.90      -99.90    
       -99.90      -99.90      -99.90      -99.90      -99.90      -99.90      -99.90      -99.90      -99.90      -99.90    
  13   -99.90      -99.90      -99.90      -99.90      -99.90      -99.90      -99.90      -99.90      -99.90      -99.90    
       -99.90      -99.90      -99.90      -99.90      -99.90      -99.90      -99.90      -99.90      -99.90      -99.90    
       -99.90      -99.90      -99.90      -99.90      -99.90      -99.90      -99.90      -99.90      -99.90      -99.90    
       -99.90      -99.90      -99.90      -99.90      -99.90      -99.90      -99.90      -99.90      -99.90      -99.90    
  14   -99.90      -99.90      -99.90      -99.90      -99.90      -99.90      -99.90      -99.90      -99.90      -99.90    
       -99.90      -99.90      -99.90      -99.90      -99.90      -99.90      -99.90      -99.90      -99.90      -99.90    
       -99.90      -99.90      -99.90      -99.90      -99.90      -99.90      -99.90      -99.90      -99.90      -99.90    
       -99.90      -99.90      -99.90      -99.90      -99.90      -99.90      -99.90      -99.90      -99.90      -99.90    
  15   -99.90      -99.90      -99.90      -99.90      -99.90      -99.90      -99.90      -99.90      -99.90      -99.90    
       -99.90      -99.90      -99.90      -99.90      -99.90      -99.90      -99.90      -99.90      -99.90      -99.90    
       -99.90      -99.90      -99.90      -99.90      -99.90      -99.90      -99.90      -99.90      -99.90      -99.90    
       -99.90      -99.90      -99.90      -99.90      -99.90      -99.90      -99.90      -99.90      -99.90      -99.90    
  16   -99.90      -99.90      -99.90      -99.90      -99.90      -99.90      -99.90      -99.90      -99.90      -99.90    
       -99.90      -99.90      -99.90      -99.90      -99.90      -99.90      -99.90      -99.90      -99.90      -99.90    
       -99.90      -99.90      -99.90      -99.90      -99.90      -99.90      -99.90      -99.90      -99.90      -99.90    
       -99.90      -99.90      -99.90      -99.90      -99.90      -99.90      -99.90      -99.90      -99.90      -99.90    
  17   -99.90      -99.90      -99.90      -99.90      -99.90      -99.90      -99.90      -99.90      -99.90      -99.90    
       -99.90      -99.90      -99.90      -99.90      -99.90      -99.90      -99.90      -99.90      -99.90      -99.90    
       -99.90      -99.90      -99.90      -99.90      -99.90      -99.90      -99.90      -99.90      -99.90      -99.90    
       -99.90      -99.90      -99.90      -99.90      -99.90      -99.90      -99.90      -99.90      -99.90      -99.90    
  18   -99.90      -99.90      -99.90      -99.90      -99.90      -99.90      -99.90      -99.90      -99.90      -99.90    
       -99.90      -99.90      -99.90      -99.90      -99.90      -99.90      -99.90      -99.90      -99.90      -99.90    
       -99.90      -99.90      -99.90      -99.90      -99.90      -99.90      -99.90      -99.90      -99.90      -99.90    
       -99.90      -99.90      -99.90      -99.90      -99.90      -99.90      -99.90      -99.90      -99.90      -99.90    
  19   -99.90      -99.90      -99.90      -99.90      -99.90      -99.90      -99.90      -99.90      -99.90      -99.90    
       -99.90      -99.90      -99.90      -99.90      -99.90      -99.90      -99.90      -99.90      -99.90      -99.90    
       -99.90      -99.90      -99.90      -99.90      -99.90      -99.90      -99.90      -99.90      -99.90      -99.90    
       -99.90      -99.90      -99.90      -99.90      -99.90      -99.90      -99.90      -99.90      -99.90      -99.90    
  20   -99.90      -99.90      -99.90      -99.90      -99.90      -99.90      -99.90      -99.90      -99.90      -99.90    
       -99.90      -99.90      -99.90      -99.90      -99.90      -99.90      -99.90      -99.90      -99.90      -99.90    
       -99.90      -99.90      -99.90      -99.90      -99.90      -99.90      -99.90      -99.90      -99.90      -99.90    
       -99.90      -99.90      -99.90      -99.90      -99.90      -99.90      -99.90      -99.90      -99.90      -99.90    
  21   -99.90      -99.90      -99.90      -99.90      -99.90      -99.90      -99.90      -99.90      -99.90      -99.90    
       -99.90      -99.90      -99.90      -99.90      -99.90      -99.90      -99.90      -99.90      -99.90      -99.90    
       -99.90      -99.90      -99.90      -99.90      -99.90      -99.90      -99.90      -99.90      -99.90      -99.90    
       -99.90      -99.90      -99.90      -99.90      -99.90      -99.90      -99.90      -99.90      -99.90      -99.90    
  22   -99.90      -99.90      -99.90      -99.90      -99.90      -99.90      -99.90      -99.90      -99.90      -99.90    
       -99.90      -99.90      -99.90      -99.90      -99.90      -99.90      -99.90      -99.90      -99.90      -99.90    
       -99.90      -99.90      -99.90      -99.90      -99.90      -99.90      -99.90      -99.90      -99.90      -99.90    
       -99.90      -99.90      -99.90      -99.90      -99.90      -99.90      -99.90      -99.90      -99.90      -99.90    
  23   -99.90      -99.90      -99.90      -99.90      -99.90      -99.90      -99.90      -99.90      -99.90      -99.90    
       -99.90      -99.90      -99.90      -99.90      -99.90      -99.90      -99.90      -99.90      -99.90      -99.90    
       -99.90      -99.90      -99.90      -99.90      -99.90      -99.90      -99.90      -99.90      -99.90      -99.90    
       -99.90      -99.90      -99.90      -99.90      -99.90      -99.90      -99.90      -99.90      -99.90      -99.90    
  24   -99.90      -99.90      -99.90      -99.90      -99.90      -99.90      -99.90      -99.90      -99.90      -99.90    
       -99.90      -99.90      -99.90      -99.90      -99.90      -99.90      -99.90      -99.90      -99.90      -99.90    
       -99.90      -99.90      -99.90      -99.90      -99.90      -99.90      -99.90      -99.90      -99.90      -99.90    
       -99.90      -99.90      -99.90      -99.90      -99.90      -99.90      -99.90      -99.90      -99.90      -99.90    
  25   -99.90      -99.90      -99.90      -99.90      -99.90      -99.90      -99.90      -99.90      -99.90      -99.90    
       -99.90      -99.90      -99.90      -99.90      -99.90      -99.90      -99.90      -99.90      -99.90      -99.90    
       -99.90      -99.90      -99.90      -99.90      -99.90      -99.90      -99.90      -99.90      -99.90      -99.90    
       -99.90      -99.90      -99.90      -99.90      -99.90      -99.90      -99.90      -99.90      -99.90      -99.90    
  26   -99.90      -99.90      -99.90      -99.90      -99.90      -99.90      -99.90      -99.90      -99.90      -99.90    
       -99.90      -99.90      -99.90      -99.90      -99.90      -99.90      -99.90      -99.90      -99.90      -99.90    
       -99.90      -99.90      -99.90      -99.90      -99.90      -99.90      -99.90      -99.90      -99.90      -99.90    
       -99.90      -99.90      -99.90      -99.90      -99.90      -99.90      -99.90      -99.90      -99.90      -99.90    
  27   -99.90      -99.90      -99.90      -99.90      -99.90      -99.90      -99.90      -99.90      -99.90      -99.90    
       -99.90      -99.90      -99.90      -99.90      -99.90      -99.90      -99.90      -99.90      -99.90      -99.90    
       -99.90      -99.90      -99.90      -99.90      -99.90      -99.90      -99.90      -99.90      -99.90      -99.90    
       -99.90      -99.90      -99.90      -99.90      -99.90      -99.90      -99.90      -99.90      -99.90      -99.90    
  28   -99.90      -99.90      -99.90      -99.90      -99.90      -99.90      -99.90      -99.90      -99.90      -99.90    
       -99.90      -99.90      -99.90      -99.90      -99.90      -99.90      -99.90      -99.90      -99.90      -99.90    
       -99.90      -99.90      -99.90      -99.90      -99.90      -99.90      -99.90      -99.90      -99.90      -99.90    
       -99.90      -99.90      -99.90      -99.90      -99.90      -99.90      -99.90      -99.90      -99.90      -99.90    
  29   -99.90      -99.90      -99.90      -99.90      -99.90      -99.90      -99.90      -99.90      -99.90      -99.90    
       -99.90      -99.90      -99.90      -99.90      -99.90      -99.90      -99.90      -99.90      -99.90      -99.90    
       -99.90      -99.90      -99.90      -99.90      -99.90      -99.90      -99.90      -99.90      -99.90      -99.90    
       -99.90      -99.90      -99.90      -99.90      -99.90      -99.90      -99.90      -99.90      -99.90      -99.90    
  30   -99.90      -99.90      -99.90      -99.90      -99.90      -99.90      -99.90      -99.90      -99.90      -99.90    
       -99.90      -99.90      -99.90      -99.90      -99.90      -99.90      -99.90      -99.90      -99.90      -99.90    
       -99.90      -99.90      -99.90      -99.90      -99.90      -99.90      -99.90      -99.90      -99.90      -99.90    
       -99.90      -99.90      -99.90      -99.90      -99.90      -99.90      -99.90      -99.90      -99.90      -99.90    
  31   -99.90      -99.90      -99.90      -99.90      -99.90      -99.90      -99.90      -99.90      -99.90      -99.90    
       -99.90      -99.90      -99.90      -99.90      -99.90      -99.90      -99.90      -99.90      -99.90      -99.90    
       -99.90      -99.90      -99.90      -99.90      -99.90      -99.90      -99.90      -99.90      -99.90      -99.90    
       -99.90      -99.90      -99.90      -99.90      -99.90      -99.90      -99.90      -99.90      -99.90      -99.90    
  32   -99.90      -99.90      -99.90      -99.90      -99.90      -99.90      -99.90      -99.90      -99.90      -99.90    
       -99.90      -99.90      -99.90      -99.90      -99.90      -99.90      -99.90      -99.90      -99.90      -99.90    
       -99.90      -99.90      -99.90      -99.90      -99.90      -99.90      -99.90      -99.90      -99.90      -99.90    
       -99.90      -99.90      -99.90      -99.90      -99.90      -99.90      -99.90      -99.90      -99.90      -99.90    
  33   -99.90      -99.90      -99.90      -99.90      -99.90      -99.90      -99.90      -99.90      -99.90      -99.90    
       -99.90      -99.90      -99.90      -99.90      -99.90      -99.90      -99.90      -99.90      -99.90      -99.90    
       -99.90      -99.90      -99.90      -99.90      -99.90      -99.90      -99.90      -99.90      -99.90      -99.90    
       -99.90      -99.90      -99.90      -99.90      -99.90      -99.90      -99.90      -99.90      -99.90      -99.90    
  34   -99.90      -99.90      -99.90      -99.90      -99.90      -99.90      -99.90      -99.90      -99.90      -99.90    
       -99.90      -99.90      -99.90      -99.90      -99.90      -99.90      -99.90      -99.90      -99.90      -99.90    
       -99.90      -99.90      -99.90      -99.90      -99.90      -99.90      -99.90      -99.90      -99.90      -99.90    
       -99.90      -99.90      -99.90      -99.90      -99.90      -99.90      -99.90      -99.90      -99.90      -99.90    
  35   -99.90      -99.90      -99.90      -99.90      -99.90      -99.90      -99.90      -99.90      -99.90      -99.90    
       -99.90      -99.90      -99.90      -99.90      -99.90      -99.90      -99.90      -99.90      -99.90      -99.90    
       -99.90      -99.90      -99.90      -99.90      -99.90      -99.90      -99.90      -99.90      -99.90      -99.90    
       -99.90      -99.90      -99.90      -99.90      -99.90      -99.90      -99.90      -99.90      -99.90      -99.90    
  36   -99.90      -99.90      -99.90      -99.90      -99.90      -99.90      -99.90      -99.90      -99.90      -99.90    
       -99.90      -99.90      -99.90      -99.90      -99.90      -99.90      -99.90      -99.90      -99.90      -99.90    
       -99.90      -99.90      -99.90      -99.90      -99.90      -99.90      -99.90      -99.90      -99.90      -99.90    
       -99.90      -99.90      -99.90      -99.90      -99.90      -99.90      -99.90      -99.90      -99.90      -99.90    
  37   -99.90      -99.90      -99.90      -99.90      -99.90      -99.90      -99.90      -99.90      -99.90      -99.90    
       -99.90      -99.90      -99.90      -99.90      -99.90      -99.90      -99.90      -99.90      -99.90      -99.90    
       -99.90      -99.90      -99.90      -99.90      -99.90      -99.90      -99.90      -99.90      -99.90      -99.90    
       -99.90      -99.90      -99.90      -99.90      -99.90      -99.90      -99.90      -99.90      -99.90      -99.90    
  38   -99.90      -99.90      -99.90      -99.90      -99.90      -99.90      -99.90      -99.90      -99.90      -99.90    
       -99.90      -99.90      -99.90      -99.90      -99.90      -99.90      -99.90      -99.90      -99.90      -99.90    
       -99.90      -99.90      -99.90      -99.90      -99.90      -99.90      -99.90      -99.90      -99.90      -99.90    
       -99.90      -99.90      -99.90      -99.90      -99.90      -99.90      -99.90      -99.90      -99.90      -99.90    
  39   -99.90      -99.90      -99.90      -99.90      -99.90      -99.90      -99.90      -99.90      -99.90      -99.90    
       -99.90      -99.90      -99.90      -99.90      -99.90      -99.90      -99.90      -99.90      -99.90      -99.90    
       -99.90      -99.90      -99.90      -99.90      -99.90      -99.90      -99.90      -99.90      -99.90      -99.90    
       -99.90      -99.90      -99.90      -99.90      -99.90      -99.90      -99.90      -99.90      -99.90      -99.90    
  40   -99.90      -99.90      -99.90      -99.90      -99.90      -99.90      -99.90      -99.90      -99.90      -99.90    
       -99.90      -99.90      -99.90      -99.90      -99.90      -99.90      -99.90      -99.90      -99.90      -99.90    
       -99.90      -99.90      -99.90      -99.90      -99.90      -99.90      -99.90      -99.90      -99.90      -99.90    
       -99.90      -99.90      -99.90      -99.90      -99.90      -99.90      -99.90      -99.90      -99.90      -99.90    
1
              HEAD IN LAYER 9 AT END OF TIME STEP 1 IN STRESS PERIOD 1
  ---------------------------------------------------------------------------

            1           2           3           4           5           6           7           8           9          10
           11          12          13          14          15          16          17          18          19          20
           21          22          23          24          25          26          27          28          29          30
           31          32          33          34          35          36          37          38          39          40
 ........................................................................................................................
   1    28.71       28.26       25.81       25.27       25.10       25.04       25.01       25.00      -99.90      -99.90    
       -99.90      -99.90      -99.90      -99.90      -99.90      -99.90      -99.90      -99.90      -99.90      -99.90    
       -99.90      -99.90      -99.90      -99.90      -99.90      -99.90      -99.90      -99.90      -99.90      -99.90    
       -99.90      -99.90      -99.90      -99.90      -99.90      -99.90      -99.90      -99.90      -99.90      -99.90    
   2    28.26       27.90       25.66       25.22       25.08       25.03       25.01       25.00      -99.90      -99.90    
       -99.90      -99.90      -99.90      -99.90      -99.90      -99.90      -99.90      -99.90      -99.90      -99.90    
       -99.90      -99.90      -99.90      -99.90      -99.90      -99.90      -99.90      -99.90      -99.90      -99.90    
       -99.90      -99.90      -99.90      -99.90      -99.90      -99.90      -99.90      -99.90      -99.90      -99.90    
   3    25.81       25.66       25.29       25.12       25.05       25.02       25.01       25.00      -99.90      -99.90    
       -99.90      -99.90      -99.90      -99.90      -99.90      -99.90      -99.90      -99.90      -99.90      -99.90    
       -99.90      -99.90      -99.90      -99.90      -99.90      -99.90      -99.90      -99.90      -99.90      -99.90    
       -99.90      -99.90      -99.90      -99.90      -99.90      -99.90      -99.90      -99.90      -99.90      -99.90    
   4    25.27       25.22       25.12       25.06       25.03       25.01       25.01       25.00      -99.90      -99.90    
       -99.90      -99.90      -99.90      -99.90      -99.90      -99.90      -99.90      -99.90      -99.90      -99.90    
       -99.90      -99.90      -99.90      -99.90      -99.90      -99.90      -99.90      -99.90      -99.90      -99.90    
       -99.90      -99.90      -99.90      -99.90      -99.90      -99.90      -99.90      -99.90      -99.90      -99.90    
   5    25.10       25.08       25.05       25.03       25.01       25.01       25.00      -99.90      -99.90      -99.90    
       -99.90      -99.90      -99.90      -99.90      -99.90      -99.90      -99.90      -99.90      -99.90      -99.90    
       -99.90      -99.90      -99.90      -99.90      -99.90      -99.90      -99.90      -99.90      -99.90      -99.90    
       -99.90      -99.90      -99.90      -99.90      -99.90      -99.90      -99.90      -99.90      -99.90      -99.90    
   6    25.04       25.03       25.02       25.01       25.01       25.00      -99.90      -99.90      -99.90      -99.90    
       -99.90      -99.90      -99.90      -99.90      -99.90      -99.90      -99.90      -99.90      -99.90      -99.90    
       -99.90      -99.90      -99.90      -99.90      -99.90      -99.90      -99.90      -99.90      -99.90      -99.90    
       -99.90      -99.90      -99.90      -99.90      -99.90      -99.90      -99.90      -99.90      -99.90      -99.90    
   7    25.01       25.01       25.01       25.01       25.00      -99.90      -99.90      -99.90      -99.90      -99.90    
       -99.90      -99.90      -99.90      -99.90      -99.90      -99.90      -99.90      -99.90      -99.90      -99.90    
       -99.90      -99.90      -99.90      -99.90      -99.90      -99.90      -99.90      -99.90      -99.90      -99.90    
       -99.90      -99.90      -99.90      -99.90      -99.90      -99.90      -99.90      -99.90      -99.90      -99.90    
   8    25.00       25.00       25.00       25.00      -99.90      -99.90      -99.90      -99.90      -99.90      -99.90    
       -99.90      -99.90      -99.90      -99.90      -99.90      -99.90      -99.90      -99.90      -99.90      -99.90    
       -99.90      -99.90      -99.90      -99.90      -99.90      -99.90      -99.90      -99.90      -99.90      -99.90    
       -99.90      -99.90      -99.90      -99.90      -99.90      -99.90      -99.90      -99.90      -99.90      -99.90    
   9   -99.90      -99.90      -99.90      -99.90      -99.90      -99.90      -99.90      -99.90      -99.90      -99.90    
       -99.90      -99.90      -99.90      -99.90      -99.90      -99.90      -99.90      -99.90      -99.90      -99.90    
       -99.90      -99.90      -99.90      -99.90      -99.90      -99.90      -99.90      -99.90      -99.90      -99.90    
       -99.90      -99.90      -99.90      -99.90      -99.90      -99.90      -99.90      -99.90      -99.90      -99.90    
  10   -99.90      -99.90      -99.90      -99.90      -99.90      -99.90      -99.90      -99.90      -99.90      -99.90    
       -99.90      -99.90      -99.90      -99.90      -99.90      -99.90      -99.90      -99.90      -99.90      -99.90    
       -99.90      -99.90      -99.90      -99.90      -99.90      -99.90      -99.90      -99.90      -99.90      -99.90    
       -99.90      -99.90      -99.90      -99.90      -99.90      -99.90      -99.90      -99.90      -99.90      -99.90    
  11   -99.90      -99.90      -99.90      -99.90      -99.90      -99.90      -99.90      -99.90      -99.90      -99.90    
       -99.90      -99.90      -99.90      -99.90      -99.90      -99.90      -99.90      -99.90      -99.90      -99.90    
       -99.90      -99.90      -99.90      -99.90      -99.90      -99.90      -99.90      -99.90      -99.90      -99.90    
       -99.90      -99.90      -99.90      -99.90      -99.90      -99.90      -99.90      -99.90      -99.90      -99.90    
  12   -99.90      -99.90      -99.90      -99.90      -99.90      -99.90      -99.90      -99.90      -99.90      -99.90    
       -99.90      -99.90      -99.90      -99.90      -99.90      -99.90      -99.90      -99.90      -99.90      -99.90    
       -99.90      -99.90      -99.90      -99.90      -99.90      -99.90      -99.90      -99.90      -99.90      -99.90    
       -99.90      -99.90      -99.90      -99.90      -99.90      -99.90      -99.90      -99.90      -99.90      -99.90    
  13   -99.90      -99.90      -99.90      -99.90      -99.90      -99.90      -99.90      -99.90      -99.90      -99.90    
       -99.90      -99.90      -99.90      -99.90      -99.90      -99.90      -99.90      -99.90      -99.90      -99.90    
       -99.90      -99.90      -99.90      -99.90      -99.90      -99.90      -99.90      -99.90      -99.90      -99.90    
       -99.90      -99.90      -99.90      -99.90      -99.90      -99.90      -99.90      -99.90      -99.90      -99.90    
  14   -99.90      -99.90      -99.90      -99.90      -99.90      -99.90      -99.90      -99.90      -99.90      -99.90    
       -99.90      -99.90      -99.90      -99.90      -99.90      -99.90      -99.90      -99.90      -99.90      -99.90    
       -99.90      -99.90      -99.90      -99.90      -99.90      -99.90      -99.90      -99.90      -99.90      -99.90    
       -99.90      -99.90      -99.90      -99.90      -99.90      -99.90      -99.90      -99.90      -99.90      -99.90    
  15   -99.90      -99.90      -99.90      -99.90      -99.90      -99.90      -99.90      -99.90      -99.90      -99.90    
       -99.90      -99.90      -99.90      -99.90      -99.90      -99.90      -99.90      -99.90      -99.90      -99.90    
       -99.90      -99.90      -99.90      -99.90      -99.90      -99.90      -99.90      -99.90      -99.90      -99.90    
       -99.90      -99.90      -99.90      -99.90      -99.90      -99.90      -99.90      -99.90      -99.90      -99.90    
  16   -99.90      -99.90      -99.90      -99.90      -99.90      -99.90      -99.90      -99.90      -99.90      -99.90    
       -99.90      -99.90      -99.90      -99.90      -99.90      -99.90      -99.90      -99.90      -99.90      -99.90    
       -99.90      -99.90      -99.90      -99.90      -99.90      -99.90      -99.90      -99.90      -99.90      -99.90    
       -99.90      -99.90      -99.90      -99.90      -99.90      -99.90      -99.90      -99.90      -99.90      -99.90    
  17   -99.90      -99.90      -99.90      -99.90      -99.90      -99.90      -99.90      -99.90      -99.90      -99.90    
       -99.90      -99.90      -99.90      -99.90      -99.90      -99.90      -99.90      -99.90      -99.90      -99.90    
       -99.90      -99.90      -99.90      -99.90      -99.90      -99.90      -99.90      -99.90      -99.90      -99.90    
       -99.90      -99.90      -99.90      -99.90      -99.90      -99.90      -99.90      -99.90      -99.90      -99.90    
  18   -99.90      -99.90      -99.90      -99.90      -99.90      -99.90      -99.90      -99.90      -99.90      -99.90    
       -99.90      -99.90      -99.90      -99.90      -99.90      -99.90      -99.90      -99.90      -99.90      -99.90    
       -99.90      -99.90      -99.90      -99.90      -99.90      -99.90      -99.90      -99.90      -99.90      -99.90    
       -99.90      -99.90      -99.90      -99.90      -99.90      -99.90      -99.90      -99.90      -99.90      -99.90    
  19   -99.90      -99.90      -99.90      -99.90      -99.90      -99.90      -99.90      -99.90      -99.90      -99.90    
       -99.90      -99.90      -99.90      -99.90      -99.90      -99.90      -99.90      -99.90      -99.90      -99.90    
       -99.90      -99.90      -99.90      -99.90      -99.90      -99.90      -99.90      -99.90      -99.90      -99.90    
       -99.90      -99.90      -99.90      -99.90      -99.90      -99.90      -99.90      -99.90      -99.90      -99.90    
  20   -99.90      -99.90      -99.90      -99.90      -99.90      -99.90      -99.90      -99.90      -99.90      -99.90    
       -99.90      -99.90      -99.90      -99.90      -99.90      -99.90      -99.90      -99.90      -99.90      -99.90    
       -99.90      -99.90      -99.90      -99.90      -99.90      -99.90      -99.90      -99.90      -99.90      -99.90    
       -99.90      -99.90      -99.90      -99.90      -99.90      -99.90      -99.90      -99.90      -99.90      -99.90    
  21   -99.90      -99.90      -99.90      -99.90      -99.90      -99.90      -99.90      -99.90      -99.90      -99.90    
       -99.90      -99.90      -99.90      -99.90      -99.90      -99.90      -99.90      -99.90      -99.90      -99.90    
       -99.90      -99.90      -99.90      -99.90      -99.90      -99.90      -99.90      -99.90      -99.90      -99.90    
       -99.90      -99.90      -99.90      -99.90      -99.90      -99.90      -99.90      -99.90      -99.90      -99.90    
  22   -99.90      -99.90      -99.90      -99.90      -99.90      -99.90      -99.90      -99.90      -99.90      -99.90    
       -99.90      -99.90      -99.90      -99.90      -99.90      -99.90      -99.90      -99.90      -99.90      -99.90    
       -99.90      -99.90      -99.90      -99.90      -99.90      -99.90      -99.90      -99.90      -99.90      -99.90    
       -99.90      -99.90      -99.90      -99.90      -99.90      -99.90      -99.90      -99.90      -99.90      -99.90    
  23   -99.90      -99.90      -99.90      -99.90      -99.90      -99.90      -99.90      -99.90      -99.90      -99.90    
       -99.90      -99.90      -99.90      -99.90      -99.90      -99.90      -99.90      -99.90      -99.90      -99.90    
       -99.90      -99.90      -99.90      -99.90      -99.90      -99.90      -99.90      -99.90      -99.90      -99.90    
       -99.90      -99.90      -99.90      -99.90      -99.90      -99.90      -99.90      -99.90      -99.90      -99.90    
  24   -99.90      -99.90      -99.90      -99.90      -99.90      -99.90      -99.90      -99.90      -99.90      -99.90    
       -99.90      -99.90      -99.90      -99.90      -99.90      -99.90      -99.90      -99.90      -99.90      -99.90    
       -99.90      -99.90      -99.90      -99.90      -99.90      -99.90      -99.90      -99.90      -99.90      -99.90    
       -99.90      -99.90      -99.90      -99.90      -99.90      -99.90      -99.90      -99.90      -99.90      -99.90    
  25   -99.90      -99.90      -99.90      -99.90      -99.90      -99.90      -99.90      -99.90      -99.90      -99.90    
       -99.90      -99.90      -99.90      -99.90      -99.90      -99.90      -99.90      -99.90      -99.90      -99.90    
       -99.90      -99.90      -99.90      -99.90      -99.90      -99.90      -99.90      -99.90      -99.90      -99.90    
       -99.90      -99.90      -99.90      -99.90      -99.90      -99.90      -99.90      -99.90      -99.90      -99.90    
  26   -99.90      -99.90      -99.90      -99.90      -99.90      -99.90      -99.90      -99.90      -99.90      -99.90    
       -99.90      -99.90      -99.90      -99.90      -99.90      -99.90      -99.90      -99.90      -99.90      -99.90    
       -99.90      -99.90      -99.90      -99.90      -99.90      -99.90      -99.90      -99.90      -99.90      -99.90    
       -99.90      -99.90      -99.90      -99.90      -99.90      -99.90      -99.90      -99.90      -99.90      -99.90    
  27   -99.90      -99.90      -99.90      -99.90      -99.90      -99.90      -99.90      -99.90      -99.90      -99.90    
       -99.90      -99.90      -99.90      -99.90      -99.90      -99.90      -99.90      -99.90      -99.90      -99.90    
       -99.90      -99.90      -99.90      -99.90      -99.90      -99.90      -99.90      -99.90      -99.90      -99.90    
       -99.90      -99.90      -99.90      -99.90      -99.90      -99.90      -99.90      -99.90      -99.90      -99.90    
  28   -99.90      -99.90      -99.90      -99.90      -99.90      -99.90      -99.90      -99.90      -99.90      -99.90    
       -99.90      -99.90      -99.90      -99.90      -99.90      -99.90      -99.90      -99.90      -99.90      -99.90    
       -99.90      -99.90      -99.90      -99.90      -99.90      -99.90      -99.90      -99.90      -99.90      -99.90    
       -99.90      -99.90      -99.90      -99.90      -99.90      -99.90      -99.90      -99.90      -99.90      -99.90    
  29   -99.90      -99.90      -99.90      -99.90      -99.90      -99.90      -99.90      -99.90      -99.90      -99.90    
       -99.90      -99.90      -99.90      -99.90      -99.90      -99.90      -99.90      -99.90      -99.90      -99.90    
       -99.90      -99.90      -99.90      -99.90      -99.90      -99.90      -99.90      -99.90      -99.90      -99.90    
       -99.90      -99.90      -99.90      -99.90      -99.90      -99.90      -99.90      -99.90      -99.90      -99.90    
  30   -99.90      -99.90      -99.90      -99.90      -99.90      -99.90      -99.90      -99.90      -99.90      -99.90    
       -99.90      -99.90      -99.90      -99.90      -99.90      -99.90      -99.90      -99.90      -99.90      -99.90    
       -99.90      -99.90      -99.90      -99.90      -99.90      -99.90      -99.90      -99.90      -99.90      -99.90    
       -99.90      -99.90      -99.90      -99.90      -99.90      -99.90      -99.90      -99.90      -99.90      -99.90    
  31   -99.90      -99.90      -99.90      -99.90      -99.90      -99.90      -99.90      -99.90      -99.90      -99.90    
       -99.90      -99.90      -99.90      -99.90      -99.90      -99.90      -99.90      -99.90      -99.90      -99.90    
       -99.90      -99.90      -99.90      -99.90      -99.90      -99.90      -99.90      -99.90      -99.90      -99.90    
       -99.90      -99.90      -99.90      -99.90      -99.90      -99.90      -99.90      -99.90      -99.90      -99.90    
  32   -99.90      -99.90      -99.90      -99.90      -99.90      -99.90      -99.90      -99.90      -99.90      -99.90    
       -99.90      -99.90      -99.90      -99.90      -99.90      -99.90      -99.90      -99.90      -99.90      -99.90    
       -99.90      -99.90      -99.90      -99.90      -99.90      -99.90      -99.90      -99.90      -99.90      -99.90    
       -99.90      -99.90      -99.90      -99.90      -99.90      -99.90      -99.90      -99.90      -99.90      -99.90    
  33   -99.90      -99.90      -99.90      -99.90      -99.90      -99.90      -99.90      -99.90      -99.90      -99.90    
       -99.90      -99.90      -99.90      -99.90      -99.90      -99.90      -99.90      -99.90      -99.90      -99.90    
       -99.90      -99.90      -99.90      -99.90      -99.90      -99.90      -99.90      -99.90      -99.90      -99.90    
       -99.90      -99.90      -99.90      -99.90      -99.90      -99.90      -99.90      -99.90      -99.90      -99.90    
  34   -99.90      -99.90      -99.90      -99.90      -99.90      -99.90      -99.90      -99.90      -99.90      -99.90    
       -99.90      -99.90      -99.90      -99.90      -99.90      -99.90      -99.90      -99.90      -99.90      -99.90    
       -99.90      -99.90      -99.90      -99.90      -99.90      -99.90      -99.90      -99.90      -99.90      -99.90    
       -99.90      -99.90      -99.90      -99.90      -99.90      -99.90      -99.90      -99.90      -99.90      -99.90    
  35   -99.90      -99.90      -99.90      -99.90      -99.90      -99.90      -99.90      -99.90      -99.90      -99.90    
       -99.90      -99.90      -99.90      -99.90      -99.90      -99.90      -99.90      -99.90      -99.90      -99.90    
       -99.90      -99.90      -99.90      -99.90      -99.90      -99.90      -99.90      -99.90      -99.90      -99.90    
       -99.90      -99.90      -99.90      -99.90      -99.90      -99.90      -99.90      -99.90      -99.90      -99.90    
  36   -99.90      -99.90      -99.90      -99.90      -99.90      -99.90      -99.90      -99.90      -99.90      -99.90    
       -99.90      -99.90      -99.90      -99.90      -99.90      -99.90      -99.90      -99.90      -99.90      -99.90    
       -99.90      -99.90      -99.90      -99.90      -99.90      -99.90      -99.90      -99.90      -99.90      -99.90    
       -99.90      -99.90      -99.90      -99.90      -99.90      -99.90      -99.90      -99.90      -99.90      -99.90    
  37   -99.90      -99.90      -99.90      -99.90      -99.90      -99.90      -99.90      -99.90      -99.90      -99.90    
       -99.90      -99.90      -99.90      -99.90      -99.90      -99.90      -99.90      -99.90      -99.90      -99.90    
       -99.90      -99.90      -99.90      -99.90      -99.90      -99.90      -99.90      -99.90      -99.90      -99.90    
       -99.90      -99.90      -99.90      -99.90      -99.90      -99.90      -99.90      -99.90      -99.90      -99.90    
  38   -99.90      -99.90      -99.90      -99.90      -99.90      -99.90      -99.90      -99.90      -99.90      -99.90    
       -99.90      -99.90      -99.90      -99.90      -99.90      -99.90      -99.90      -99.90      -99.90      -99.90    
       -99.90      -99.90      -99.90      -99.90      -99.90      -99.90      -99.90      -99.90      -99.90      -99.90    
       -99.90      -99.90      -99.90      -99.90      -99.90      -99.90      -99.90      -99.90      -99.90      -99.90    
  39   -99.90      -99.90      -99.90      -99.90      -99.90      -99.90      -99.90      -99.90      -99.90      -99.90    
       -99.90      -99.90      -99.90      -99.90      -99.90      -99.90      -99.90      -99.90      -99.90      -99.90    
       -99.90      -99.90      -99.90      -99.90      -99.90      -99.90      -99.90      -99.90      -99.90      -99.90    
       -99.90      -99.90      -99.90      -99.90      -99.90      -99.90      -99.90      -99.90      -99.90      -99.90    
  40   -99.90      -99.90      -99.90      -99.90      -99.90      -99.90      -99.90      -99.90      -99.90      -99.90    
       -99.90      -99.90      -99.90      -99.90      -99.90      -99.90      -99.90      -99.90      -99.90      -99.90    
       -99.90      -99.90      -99.90      -99.90      -99.90      -99.90      -99.90      -99.90      -99.90      -99.90    
       -99.90      -99.90      -99.90      -99.90      -99.90      -99.90      -99.90      -99.90      -99.90      -99.90    
1
              HEAD IN LAYER 10 AT END OF TIME STEP 1 IN STRESS PERIOD 1
  ---------------------------------------------------------------------------

            1           2           3           4           5           6           7           8           9          10
           11          12          13          14          15          16          17          18          19          20
           21          22          23          24          25          26          27          28          29          30
           31          32          33          34          35          36          37          38          39          40
 ........................................................................................................................
   1    28.51       28.00       25.93       25.32       25.12       25.04       25.02       25.01       25.00       25.00    
        25.00       25.00       25.00       25.00       25.00       25.00       25.00       25.00       25.00       25.00    
        25.00       25.00       25.00       25.00       25.00       25.00       25.00       25.00       25.00       25.00    
        25.00       25.00       25.00       25.00       25.00       25.00       25.00       25.00       25.00       25.00    
   2    28.00       27.58       25.76       25.26       25.10       25.04       25.01       25.01       25.00       25.00    
        25.00       25.00       25.00       25.00       25.00       25.00       25.00       25.00       25.00       25.00    
        25.00       25.00       25.00       25.00       25.00       25.00       25.00       25.00       25.00       25.00    
        25.00       25.00       25.00       25.00       25.00       25.00       25.00       25.00       25.00       25.00    
   3    25.93       25.76       25.35       25.15       25.06       25.02       25.01       25.00       25.00       25.00    
        25.00       25.00       25.00       25.00       25.00       25.00       25.00       25.00       25.00       25.00    
        25.00       25.00       25.00       25.00       25.00       25.00       25.00       25.00       25.00       25.00    
        25.00       25.00       25.00       25.00       25.00       25.00       25.00       25.00       25.00       25.00    
   4    25.32       25.26       25.15       25.07       25.03       25.01       25.01       25.00       25.00       25.00    
        25.00       25.00       25.00       25.00       25.00       25.00       25.00       25.00       25.00       25.00    
        25.00       25.00       25.00       25.00       25.00       25.00       25.00       25.00       25.00       25.00    
        25.00       25.00       25.00       25.00       25.00       25.00       25.00       25.00       25.00       25.00    
   5    25.12       25.10       25.06       25.03       25.02       25.01       25.00       25.00       25.00       25.00    
        25.00       25.00       25.00       25.00       25.00       25.00       25.00       25.00       25.00       25.00    
        25.00       25.00       25.00       25.00       25.00       25.00       25.00       25.00       25.00       25.00    
        25.00       25.00       25.00       25.00       25.00       25.00       25.00       25.00       25.00       25.00    
   6    25.04       25.04       25.02       25.01       25.01       25.00       25.00       25.00       25.00       25.00    
        25.00       25.00       25.00       25.00       25.00       25.00       25.00       25.00       25.00       25.00    
        25.00       25.00       25.00       25.00       25.00       25.00       25.00       25.00       25.00       25.00    
        25.00       25.00       25.00       25.00       25.00       25.00       25.00       25.00       25.00       25.00    
   7    25.02       25.01       25.01       25.01       25.00       25.00       25.00       25.00       25.00       25.00    
        25.00       25.00       25.00       25.00       25.00       25.00       25.00       25.00       25.00       25.00    
        25.00       25.00       25.00       25.00       25.00       25.00       25.00       25.00       25.00       25.00    
        25.00       25.00       25.00       25.00       25.00       25.00       25.00       25.00       25.00       25.00    
   8    25.01       25.01       25.00       25.00       25.00       25.00       25.00       25.00       25.00       25.00    
        25.00       25.00       25.00       25.00       25.00       25.00       25.00       25.00       25.00       25.00    
        25.00       25.00       25.00       25.00       25.00       25.00       25.00       25.00       25.00       25.00    
        25.00       25.00       25.00       25.00       25.00       25.00       25.00       25.00       25.00       25.00    
   9    25.00       25.00       25.00       25.00       25.00       25.00       25.00       25.00       25.00       25.00    
        25.00       25.00       25.00       25.00       25.00       25.00       25.00       25.00       25.00       25.00    
        25.00       25.00       25.00       25.00       25.00       25.00       25.00       25.00       25.00       25.00    
        25.00       25.00       25.00       25.00       25.00       25.00       25.00       25.00       25.00       25.00    
  10    25.00       25.00       25.00       25.00       25.00       25.00       25.00       25.00       25.00       25.00    
        25.00       25.00       25.00       25.00       25.00       25.00       25.00       25.00       25.00       25.00    
        25.00       25.00       25.00       25.00       25.00       25.00       25.00       25.00       25.00       25.00    
        25.00       25.00       25.00       25.00       25.00       25.00       25.00       25.00       25.00       25.00    
  11    25.00       25.00       25.00       25.00       25.00       25.00       25.00       25.00       25.00       25.00    
        25.00       25.00       25.00       25.00       25.00       25.00       25.00       25.00       25.00       25.00    
        25.00       25.00       25.00       25.00       25.00       25.00       25.00       25.00       25.00       25.00    
        25.00       25.00       25.00       25.00       25.00       25.00       25.00       25.00       25.00       25.00    
  12    25.00       25.00       25.00       25.00       25.00       25.00       25.00       25.00       25.00       25.00    
        25.00       25.00       25.00       25.00       25.00       25.00       25.00       25.00       25.00       25.00    
        25.00       25.00       25.00       25.00       25.00       25.00       25.00       25.00       25.00       25.00    
        25.00       25.00       25.00       25.00       25.00       25.00       25.00       25.00       25.00       25.00    
  13    25.00       25.00       25.00       25.00       25.00       25.00       25.00       25.00       25.00       25.00    
        25.00       25.00       25.00       25.00       25.00       25.00       25.00       25.00       25.00       25.00    
        25.00       25.00       25.00       25.00       25.00       25.00       25.00       25.00       25.00       25.00    
        25.00       25.00       25.00       25.00       25.00       25.00       25.00       25.00       25.00       25.00    
  14    25.00       25.00       25.00       25.00       25.00       25.00       25.00       25.00       25.00       25.00    
        25.00       25.00       25.00       25.00       25.00       25.00       25.00       25.00       25.00       25.00    
        25.00       25.00       25.00       25.00       25.00       25.00       25.00       25.00       25.00       25.00    
        25.00       25.00       25.00       25.00       25.00       25.00       25.00       25.00       25.00       25.00    
  15    25.00       25.00       25.00       25.00       25.00       25.00       25.00       25.00       25.00       25.00    
        25.00       25.00       25.00       25.00       25.00       25.00       25.00       25.00       25.00       25.00    
        25.00       25.00       25.00       25.00       25.00       25.00       25.00       25.00       25.00       25.00    
        25.00       25.00       25.00       25.00       25.00       25.00       25.00       25.00       25.00       25.00    
  16    25.00       25.00       25.00       25.00       25.00       25.00       25.00       25.00       25.00       25.00    
        25.00       25.00       25.00       25.00       25.00       25.00       25.00       25.00       25.00       25.00    
        25.00       25.00       25.00       25.00       25.00       25.00       25.00       25.00       25.00       25.00    
        25.00       25.00       25.00       25.00       25.00       25.00       25.00       25.00       25.00       25.00    
  17    25.00       25.00       25.00       25.00       25.00       25.00       25.00       25.00       25.00       25.00    
        25.00       25.00       25.00       25.00       25.00       25.00       25.00       25.00       25.00       25.00    
        25.00       25.00       25.00       25.00       25.00       25.00       25.00       25.00       25.00       25.00    
        25.00       25.00       25.00       25.00       25.00       25.00       25.00       25.00       25.00       25.00    
  18    25.00       25.00       25.00       25.00       25.00       25.00       25.00       25.00       25.00       25.00    
        25.00       25.00       25.00       25.00       25.00       25.00       25.00       25.00       25.00       25.00    
        25.00       25.00       25.00       25.00       25.00       25.00       25.00       25.00       25.00       25.00    
        25.00       25.00       25.00       25.00       25.00       25.00       25.00       25.00       25.00       25.00    
  19    25.00       25.00       25.00       25.00       25.00       25.00       25.00       25.00       25.00       25.00    
        25.00       25.00       25.00       25.00       25.00       25.00       25.00       25.00       25.00       25.00    
        25.00       25.00       25.00       25.00       25.00       25.00       25.00       25.00       25.00       25.00    
        25.00       25.00       25.00       25.00       25.00       25.00       25.00       25.00       25.00       25.00    
  20    25.00       25.00       25.00       25.00       25.00       25.00       25.00       25.00       25.00       25.00    
        25.00       25.00       25.00       25.00       25.00       25.00       25.00       25.00       25.00       25.00    
        25.00       25.00       25.00       25.00       25.00       25.00       25.00       25.00       25.00       25.00    
        25.00       25.00       25.00       25.00       25.00       25.00       25.00       25.00       25.00       25.00    
  21    25.00       25.00       25.00       25.00       25.00       25.00       25.00       25.00       25.00       25.00    
        25.00       25.00       25.00       25.00       25.00       25.00       25.00       25.00       25.00       25.00    
        25.00       25.00       25.00       25.00       25.00       25.00       25.00       25.00       25.00       25.00    
        25.00       25.00       25.00       25.00       25.00       25.00       25.00       25.00       25.00       25.00    
  22    25.00       25.00       25.00       25.00       25.00       25.00       25.00       25.00       25.00       25.00    
        25.00       25.00       25.00       25.00       25.00       25.00       25.00       25.00       25.00       25.00    
        25.00       25.00       25.00       25.00       25.00       25.00       25.00       25.00       25.00       25.00    
        25.00       25.00       25.00       25.00       25.00       25.00       25.00       25.00       25.00       25.00    
  23    25.00       25.00       25.00       25.00       25.00       25.00       25.00       25.00       25.00       25.00    
        25.00       25.00       25.00       25.00       25.00       25.00       25.00       25.00       25.00       25.00    
        25.00       25.00       25.00       25.00       25.00       25.00       25.00       25.00       25.00       25.00    
        25.00       25.00       25.00       25.00       25.00       25.00       25.00       25.00       25.00       25.00    
  24    25.00       25.00       25.00       25.00       25.00       25.00       25.00       25.00       25.00       25.00    
        25.00       25.00       25.00       25.00       25.00       25.00       25.00       25.00       25.00       25.00    
        25.00       25.00       25.00       25.00       25.00       25.00       25.00       25.00       25.00       25.00    
        25.00       25.00       25.00       25.00       25.00       25.00       25.00       25.00       25.00       25.00    
  25    25.00       25.00       25.00       25.00       25.00       25.00       25.00       25.00       25.00       25.00    
        25.00       25.00       25.00       25.00       25.00       25.00       25.00       25.00       25.00       25.00    
        25.00       25.00       25.00       25.00       25.00       25.00       25.00       25.00       25.00       25.00    
        25.00       25.00       25.00       25.00       25.00       25.00       25.00       25.00       25.00       25.00    
  26    25.00       25.00       25.00       25.00       25.00       25.00       25.00       25.00       25.00       25.00    
        25.00       25.00       25.00       25.00       25.00       25.00       25.00       25.00       25.00       25.00    
        25.00       25.00       25.00       25.00       25.00       25.00       25.00       25.00       25.00       25.00    
        25.00       25.00       25.00       25.00       25.00       25.00       25.00       25.00       25.00       25.00    
  27    25.00       25.00       25.00       25.00       25.00       25.00       25.00       25.00       25.00       25.00    
        25.00       25.00       25.00       25.00       25.00       25.00       25.00       25.00       25.00       25.00    
        25.00       25.00       25.00       25.00       25.00       25.00       25.00       25.00       25.00       25.00    
        25.00       25.00       25.00       25.00       25.00       25.00       25.00       25.00       25.00       25.00    
  28    25.00       25.00       25.00       25.00       25.00       25.00       25.00       25.00       25.00       25.00    
        25.00       25.00       25.00       25.00       25.00       25.00       25.00       25.00       25.00       25.00    
        25.00       25.00       25.00       25.00       25.00       25.00       25.00       25.00       25.00       25.00    
        25.00       25.00       25.00       25.00       25.00       25.00       25.00       25.00       25.00       25.00    
  29    25.00       25.00       25.00       25.00       25.00       25.00       25.00       25.00       25.00       25.00    
        25.00       25.00       25.00       25.00       25.00       25.00       25.00       25.00       25.00       25.00    
        25.00       25.00       25.00       25.00       25.00       25.00       25.00       25.00       25.00       25.00    
        25.00       25.00       25.00       25.00       25.00       25.00       25.00       25.00       25.00       25.00    
  30    25.00       25.00       25.00       25.00       25.00       25.00       25.00       25.00       25.00       25.00    
        25.00       25.00       25.00       25.00       25.00       25.00       25.00       25.00       25.00       25.00    
        25.00       25.00       25.00       25.00       25.00       25.00       25.00       25.00       25.00       25.00    
        25.00       25.00       25.00       25.00       25.00       25.00       25.00       25.00       25.00       25.00    
  31    25.00       25.00       25.00       25.00       25.00       25.00       25.00       25.00       25.00       25.00    
        25.00       25.00       25.00       25.00       25.00       25.00       25.00       25.00       25.00       25.00    
        25.00       25.00       25.00       25.00       25.00       25.00       25.00       25.00       25.00       25.00    
        25.00       25.00       25.00       25.00       25.00       25.00       25.00       25.00       25.00       25.00    
  32    25.00       25.00       25.00       25.00       25.00       25.00       25.00       25.00       25.00       25.00    
        25.00       25.00       25.00       25.00       25.00       25.00       25.00       25.00       25.00       25.00    
        25.00       25.00       25.00       25.00       25.00       25.00       25.00       25.00       25.00       25.00    
        25.00       25.00       25.00       25.00       25.00       25.00       25.00       25.00       25.00       25.00    
  33    25.00       25.00       25.00       25.00       25.00       25.00       25.00       25.00       25.00       25.00    
        25.00       25.00       25.00       25.00       25.00       25.00       25.00       25.00       25.00       25.00    
        25.00       25.00       25.00       25.00       25.00       25.00       25.00       25.00       25.00       25.00    
        25.00       25.00       25.00       25.00       25.00       25.00       25.00       25.00       25.00       25.00    
  34    25.00       25.00       25.00       25.00       25.00       25.00       25.00       25.00       25.00       25.00    
        25.00       25.00       25.00       25.00       25.00       25.00       25.00       25.00       25.00       25.00    
        25.00       25.00       25.00       25.00       25.00       25.00       25.00       25.00       25.00       25.00    
        25.00       25.00       25.00       25.00       25.00       25.00       25.00       25.00       25.00       25.00    
  35    25.00       25.00       25.00       25.00       25.00       25.00       25.00       25.00       25.00       25.00    
        25.00       25.00       25.00       25.00       25.00       25.00       25.00       25.00       25.00       25.00    
        25.00       25.00       25.00       25.00       25.00       25.00       25.00       25.00       25.00       25.00    
        25.00       25.00       25.00       25.00       25.00       25.00       25.00       25.00       25.00       25.00    
  36    25.00       25.00       25.00       25.00       25.00       25.00       25.00       25.00       25.00       25.00    
        25.00       25.00       25.00       25.00       25.00       25.00       25.00       25.00       25.00       25.00    
        25.00       25.00       25.00       25.00       25.00       25.00       25.00       25.00       25.00       25.00    
        25.00       25.00       25.00       25.00       25.00       25.00       25.00       25.00       25.00       25.00    
  37    25.00       25.00       25.00       25.00       25.00       25.00       25.00       25.00       25.00       25.00    
        25.00       25.00       25.00       25.00       25.00       25.00       25.00       25.00       25.00       25.00    
        25.00       25.00       25.00       25.00       25.00       25.00       25.00       25.00       25.00       25.00    
        25.00       25.00       25.00       25.00       25.00       25.00       25.00       25.00       25.00       25.00    
  38    25.00       25.00       25.00       25.00       25.00       25.00       25.00       25.00       25.00       25.00    
        25.00       25.00       25.00       25.00       25.00       25.00       25.00       25.00       25.00       25.00    
        25.00       25.00       25.00       25.00       25.00       25.00       25.00       25.00       25.00       25.00    
        25.00       25.00       25.00       25.00       25.00       25.00       25.00       25.00       25.00       25.00    
  39    25.00       25.00       25.00       25.00       25.00       25.00       25.00       25.00       25.00       25.00    
        25.00       25.00       25.00       25.00       25.00       25.00       25.00       25.00       25.00       25.00    
        25.00       25.00       25.00       25.00       25.00       25.00       25.00       25.00       25.00       25.00    
        25.00       25.00       25.00       25.00       25.00       25.00       25.00       25.00       25.00       25.00    
  40    25.00       25.00       25.00       25.00       25.00       25.00       25.00       25.00       25.00       25.00    
        25.00       25.00       25.00       25.00       25.00       25.00       25.00       25.00       25.00       25.00    
        25.00       25.00       25.00       25.00       25.00       25.00       25.00       25.00       25.00       25.00    
        25.00       25.00       25.00       25.00       25.00       25.00       25.00       25.00       25.00       25.00    
1
              HEAD IN LAYER 11 AT END OF TIME STEP 1 IN STRESS PERIOD 1
  ---------------------------------------------------------------------------

            1           2           3           4           5           6           7           8           9          10
           11          12          13          14          15          16          17          18          19          20
           21          22          23          24          25          26          27          28          29          30
           31          32          33          34          35          36          37          38          39          40
 ........................................................................................................................
   1    28.35       27.80       26.01       25.36       25.13       25.05       25.02       25.01       25.00       25.00    
        25.00       25.00       25.00       25.00       25.00       25.00       25.00       25.00       25.00       25.00    
        25.00       25.00       25.00       25.00       25.00       25.00       25.00       25.00       25.00       25.00    
        25.00       25.00       25.00       25.00       25.00       25.00       25.00       25.00       25.00       25.00    
   2    27.80       27.35       25.82       25.29       25.11       25.04       25.02       25.01       25.00       25.00    
        25.00       25.00       25.00       25.00       25.00       25.00       25.00       25.00       25.00       25.00    
        25.00       25.00       25.00       25.00       25.00       25.00       25.00       25.00       25.00       25.00    
        25.00       25.00       25.00       25.00       25.00       25.00       25.00       25.00       25.00       25.00    
   3    26.01       25.82       25.40       25.17       25.07       25.03       25.01       25.00       25.00       25.00    
        25.00       25.00       25.00       25.00       25.00       25.00       25.00       25.00       25.00       25.00    
        25.00       25.00       25.00       25.00       25.00       25.00       25.00       25.00       25.00       25.00    
        25.00       25.00       25.00       25.00       25.00       25.00       25.00       25.00       25.00       25.00    
   4    25.36       25.29       25.17       25.09       25.04       25.02       25.01       25.00       25.00       25.00    
        25.00       25.00       25.00       25.00       25.00       25.00       25.00       25.00       25.00       25.00    
        25.00       25.00       25.00       25.00       25.00       25.00       25.00       25.00       25.00       25.00    
        25.00       25.00       25.00       25.00       25.00       25.00       25.00       25.00       25.00       25.00    
   5    25.13       25.11       25.07       25.04       25.02       25.01       25.00       25.00       25.00       25.00    
        25.00       25.00       25.00       25.00       25.00       25.00       25.00       25.00       25.00       25.00    
        25.00       25.00       25.00       25.00       25.00       25.00       25.00       25.00       25.00       25.00    
        25.00       25.00       25.00       25.00       25.00       25.00       25.00       25.00       25.00       25.00    
   6    25.05       25.04       25.03       25.02       25.01       25.00       25.00       25.00       25.00       25.00    
        25.00       25.00       25.00       25.00       25.00       25.00       25.00       25.00       25.00       25.00    
        25.00       25.00       25.00       25.00       25.00       25.00       25.00       25.00       25.00       25.00    
        25.00       25.00       25.00       25.00       25.00       25.00       25.00       25.00       25.00       25.00    
   7    25.02       25.02       25.01       25.01       25.00       25.00       25.00       25.00       25.00       25.00    
        25.00       25.00       25.00       25.00       25.00       25.00       25.00       25.00       25.00       25.00    
        25.00       25.00       25.00       25.00       25.00       25.00       25.00       25.00       25.00       25.00    
        25.00       25.00       25.00       25.00       25.00       25.00       25.00       25.00       25.00       25.00    
   8    25.01       25.01       25.00       25.00       25.00       25.00       25.00       25.00       25.00       25.00    
        25.00       25.00       25.00       25.00       25.00       25.00       25.00       25.00       25.00       25.00    
        25.00       25.00       25.00       25.00       25.00       25.00       25.00       25.00       25.00       25.00    
        25.00       25.00       25.00       25.00       25.00       25.00       25.00       25.00       25.00       25.00    
   9    25.00       25.00       25.00       25.00       25.00       25.00       25.00       25.00       25.00       25.00    
        25.00       25.00       25.00       25.00       25.00       25.00       25.00       25.00       25.00       25.00    
        25.00       25.00       25.00       25.00       25.00       25.00       25.00       25.00       25.00       25.00    
        25.00       25.00       25.00       25.00       25.00       25.00       25.00       25.00       25.00       25.00    
  10    25.00       25.00       25.00       25.00       25.00       25.00       25.00       25.00       25.00       25.00    
        25.00       25.00       25.00       25.00       25.00       25.00       25.00       25.00       25.00       25.00    
        25.00       25.00       25.00       25.00       25.00       25.00       25.00       25.00       25.00       25.00    
        25.00       25.00       25.00       25.00       25.00       25.00       25.00       25.00       25.00       25.00    
  11    25.00       25.00       25.00       25.00       25.00       25.00       25.00       25.00       25.00       25.00    
        25.00       25.00       25.00       25.00       25.00       25.00       25.00       25.00       25.00       25.00    
        25.00       25.00       25.00       25.00       25.00       25.00       25.00       25.00       25.00       25.00    
        25.00       25.00       25.00       25.00       25.00       25.00       25.00       25.00       25.00       25.00    
  12    25.00       25.00       25.00       25.00       25.00       25.00       25.00       25.00       25.00       25.00    
        25.00       25.00       25.00       25.00       25.00       25.00       25.00       25.00       25.00       25.00    
        25.00       25.00       25.00       25.00       25.00       25.00       25.00       25.00       25.00       25.00    
        25.00       25.00       25.00       25.00       25.00       25.00       25.00       25.00       25.00       25.00    
  13    25.00       25.00       25.00       25.00       25.00       25.00       25.00       25.00       25.00       25.00    
        25.00       25.00       25.00       25.00       25.00       25.00       25.00       25.00       25.00       25.00    
        25.00       25.00       25.00       25.00       25.00       25.00       25.00       25.00       25.00       25.00    
        25.00       25.00       25.00       25.00       25.00       25.00       25.00       25.00       25.00       25.00    
  14    25.00       25.00       25.00       25.00       25.00       25.00       25.00       25.00       25.00       25.00    
        25.00       25.00       25.00       25.00       25.00       25.00       25.00       25.00       25.00       25.00    
        25.00       25.00       25.00       25.00       25.00       25.00       25.00       25.00       25.00       25.00    
        25.00       25.00       25.00       25.00       25.00       25.00       25.00       25.00       25.00       25.00    
  15    25.00       25.00       25.00       25.00       25.00       25.00       25.00       25.00       25.00       25.00    
        25.00       25.00       25.00       25.00       25.00       25.00       25.00       25.00       25.00       25.00    
        25.00       25.00       25.00       25.00       25.00       25.00       25.00       25.00       25.00       25.00    
        25.00       25.00       25.00       25.00       25.00       25.00       25.00       25.00       25.00       25.00    
  16    25.00       25.00       25.00       25.00       25.00       25.00       25.00       25.00       25.00       25.00    
        25.00       25.00       25.00       25.00       25.00       25.00       25.00       25.00       25.00       25.00    
        25.00       25.00       25.00       25.00       25.00       25.00       25.00       25.00       25.00       25.00    
        25.00       25.00       25.00       25.00       25.00       25.00       25.00       25.00       25.00       25.00    
  17    25.00       25.00       25.00       25.00       25.00       25.00       25.00       25.00       25.00       25.00    
        25.00       25.00       25.00       25.00       25.00       25.00       25.00       25.00       25.00       25.00    
        25.00       25.00       25.00       25.00       25.00       25.00       25.00       25.00       25.00       25.00    
        25.00       25.00       25.00       25.00       25.00       25.00       25.00       25.00       25.00       25.00    
  18    25.00       25.00       25.00       25.00       25.00       25.00       25.00       25.00       25.00       25.00    
        25.00       25.00       25.00       25.00       25.00       25.00       25.00       25.00       25.00       25.00    
        25.00       25.00       25.00       25.00       25.00       25.00       25.00       25.00       25.00       25.00    
        25.00       25.00       25.00       25.00       25.00       25.00       25.00       25.00       25.00       25.00    
  19    25.00       25.00       25.00       25.00       25.00       25.00       25.00       25.00       25.00       25.00    
        25.00       25.00       25.00       25.00       25.00       25.00       25.00       25.00       25.00       25.00    
        25.00       25.00       25.00       25.00       25.00       25.00       25.00       25.00       25.00       25.00    
        25.00       25.00       25.00       25.00       25.00       25.00       25.00       25.00       25.00       25.00    
  20    25.00       25.00       25.00       25.00       25.00       25.00       25.00       25.00       25.00       25.00    
        25.00       25.00       25.00       25.00       25.00       25.00       25.00       25.00       25.00       25.00    
        25.00       25.00       25.00       25.00       25.00       25.00       25.00       25.00       25.00       25.00    
        25.00       25.00       25.00       25.00       25.00       25.00       25.00       25.00       25.00       25.00    
  21    25.00       25.00       25.00       25.00       25.00       25.00       25.00       25.00       25.00       25.00    
        25.00       25.00       25.00       25.00       25.00       25.00       25.00       25.00       25.00       25.00    
        25.00       25.00       25.00       25.00       25.00       25.00       25.00       25.00       25.00       25.00    
        25.00       25.00       25.00       25.00       25.00       25.00       25.00       25.00       25.00       25.00    
  22    25.00       25.00       25.00       25.00       25.00       25.00       25.00       25.00       25.00       25.00    
        25.00       25.00       25.00       25.00       25.00       25.00       25.00       25.00       25.00       25.00    
        25.00       25.00       25.00       25.00       25.00       25.00       25.00       25.00       25.00       25.00    
        25.00       25.00       25.00       25.00       25.00       25.00       25.00       25.00       25.00       25.00    
  23    25.00       25.00       25.00       25.00       25.00       25.00       25.00       25.00       25.00       25.00    
        25.00       25.00       25.00       25.00       25.00       25.00       25.00       25.00       25.00       25.00    
        25.00       25.00       25.00       25.00       25.00       25.00       25.00       25.00       25.00       25.00    
        25.00       25.00       25.00       25.00       25.00       25.00       25.00       25.00       25.00       25.00    
  24    25.00       25.00       25.00       25.00       25.00       25.00       25.00       25.00       25.00       25.00    
        25.00       25.00       25.00       25.00       25.00       25.00       25.00       25.00       25.00       25.00    
        25.00       25.00       25.00       25.00       25.00       25.00       25.00       25.00       25.00       25.00    
        25.00       25.00       25.00       25.00       25.00       25.00       25.00       25.00       25.00       25.00    
  25    25.00       25.00       25.00       25.00       25.00       25.00       25.00       25.00       25.00       25.00    
        25.00       25.00       25.00       25.00       25.00       25.00       25.00       25.00       25.00       25.00    
        25.00       25.00       25.00       25.00       25.00       25.00       25.00       25.00       25.00       25.00    
        25.00       25.00       25.00       25.00       25.00       25.00       25.00       25.00       25.00       25.00    
  26    25.00       25.00       25.00       25.00       25.00       25.00       25.00       25.00       25.00       25.00    
        25.00       25.00       25.00       25.00       25.00       25.00       25.00       25.00       25.00       25.00    
        25.00       25.00       25.00       25.00       25.00       25.00       25.00       25.00       25.00       25.00    
        25.00       25.00       25.00       25.00       25.00       25.00       25.00       25.00       25.00       25.00    
  27    25.00       25.00       25.00       25.00       25.00       25.00       25.00       25.00       25.00       25.00    
        25.00       25.00       25.00       25.00       25.00       25.00       25.00       25.00       25.00       25.00    
        25.00       25.00       25.00       25.00       25.00       25.00       25.00       25.00       25.00       25.00    
        25.00       25.00       25.00       25.00       25.00       25.00       25.00       25.00       25.00       25.00    
  28    25.00       25.00       25.00       25.00       25.00       25.00       25.00       25.00       25.00       25.00    
        25.00       25.00       25.00       25.00       25.00       25.00       25.00       25.00       25.00       25.00    
        25.00       25.00       25.00       25.00       25.00       25.00       25.00       25.00       25.00       25.00    
        25.00       25.00       25.00       25.00       25.00       25.00       25.00       25.00       25.00       25.00    
  29    25.00       25.00       25.00       25.00       25.00       25.00       25.00       25.00       25.00       25.00    
        25.00       25.00       25.00       25.00       25.00       25.00       25.00       25.00       25.00       25.00    
        25.00       25.00       25.00       25.00       25.00       25.00       25.00       25.00       25.00       25.00    
        25.00       25.00       25.00       25.00       25.00       25.00       25.00       25.00       25.00       25.00    
  30    25.00       25.00       25.00       25.00       25.00       25.00       25.00       25.00       25.00       25.00    
        25.00       25.00       25.00       25.00       25.00       25.00       25.00       25.00       25.00       25.00    
        25.00       25.00       25.00       25.00       25.00       25.00       25.00       25.00       25.00       25.00    
        25.00       25.00       25.00       25.00       25.00       25.00       25.00       25.00       25.00       25.00    
  31    25.00       25.00       25.00       25.00       25.00       25.00       25.00       25.00       25.00       25.00    
        25.00       25.00       25.00       25.00       25.00       25.00       25.00       25.00       25.00       25.00    
        25.00       25.00       25.00       25.00       25.00       25.00       25.00       25.00       25.00       25.00    
        25.00       25.00       25.00       25.00       25.00       25.00       25.00       25.00       25.00       25.00    
  32    25.00       25.00       25.00       25.00       25.00       25.00       25.00       25.00       25.00       25.00    
        25.00       25.00       25.00       25.00       25.00       25.00       25.00       25.00       25.00       25.00    
        25.00       25.00       25.00       25.00       25.00       25.00       25.00       25.00       25.00       25.00    
        25.00       25.00       25.00       25.00       25.00       25.00       25.00       25.00       25.00       25.00    
  33    25.00       25.00       25.00       25.00       25.00       25.00       25.00       25.00       25.00       25.00    
        25.00       25.00       25.00       25.00       25.00       25.00       25.00       25.00       25.00       25.00    
        25.00       25.00       25.00       25.00       25.00       25.00       25.00       25.00       25.00       25.00    
        25.00       25.00       25.00       25.00       25.00       25.00       25.00       25.00       25.00       25.00    
  34    25.00       25.00       25.00       25.00       25.00       25.00       25.00       25.00       25.00       25.00    
        25.00       25.00       25.00       25.00       25.00       25.00       25.00       25.00       25.00       25.00    
        25.00       25.00       25.00       25.00       25.00       25.00       25.00       25.00       25.00       25.00    
        25.00       25.00       25.00       25.00       25.00       25.00       25.00       25.00       25.00       25.00    
  35    25.00       25.00       25.00       25.00       25.00       25.00       25.00       25.00       25.00       25.00    
        25.00       25.00       25.00       25.00       25.00       25.00       25.00       25.00       25.00       25.00    
        25.00       25.00       25.00       25.00       25.00       25.00       25.00       25.00       25.00       25.00    
        25.00       25.00       25.00       25.00       25.00       25.00       25.00       25.00       25.00       25.00    
  36    25.00       25.00       25.00       25.00       25.00       25.00       25.00       25.00       25.00       25.00    
        25.00       25.00       25.00       25.00       25.00       25.00       25.00       25.00       25.00       25.00    
        25.00       25.00       25.00       25.00       25.00       25.00       25.00       25.00       25.00       25.00    
        25.00       25.00       25.00       25.00       25.00       25.00       25.00       25.00       25.00       25.00    
  37    25.00       25.00       25.00       25.00       25.00       25.00       25.00       25.00       25.00       25.00    
        25.00       25.00       25.00       25.00       25.00       25.00       25.00       25.00       25.00       25.00    
        25.00       25.00       25.00       25.00       25.00       25.00       25.00       25.00       25.00       25.00    
        25.00       25.00       25.00       25.00       25.00       25.00       25.00       25.00       25.00       25.00    
  38    25.00       25.00       25.00       25.00       25.00       25.00       25.00       25.00       25.00       25.00    
        25.00       25.00       25.00       25.00       25.00       25.00       25.00       25.00       25.00       25.00    
        25.00       25.00       25.00       25.00       25.00       25.00       25.00       25.00       25.00       25.00    
        25.00       25.00       25.00       25.00       25.00       25.00       25.00       25.00       25.00       25.00    
  39    25.00       25.00       25.00       25.00       25.00       25.00       25.00       25.00       25.00       25.00    
        25.00       25.00       25.00       25.00       25.00       25.00       25.00       25.00       25.00       25.00    
        25.00       25.00       25.00       25.00       25.00       25.00       25.00       25.00       25.00       25.00    
        25.00       25.00       25.00       25.00       25.00       25.00       25.00       25.00       25.00       25.00    
  40    25.00       25.00       25.00       25.00       25.00       25.00       25.00       25.00       25.00       25.00    
        25.00       25.00       25.00       25.00       25.00       25.00       25.00       25.00       25.00       25.00    
        25.00       25.00       25.00       25.00       25.00       25.00       25.00       25.00       25.00       25.00    
        25.00       25.00       25.00       25.00       25.00       25.00       25.00       25.00       25.00       25.00    
1
              HEAD IN LAYER 12 AT END OF TIME STEP 1 IN STRESS PERIOD 1
  ---------------------------------------------------------------------------

            1           2           3           4           5           6           7           8           9          10
           11          12          13          14          15          16          17          18          19          20
           21          22          23          24          25          26          27          28          29          30
           31          32          33          34          35          36          37          38          39          40
 ........................................................................................................................
   1    28.23       27.66       26.07       25.39       25.14       25.05       25.02       25.01       25.00       25.00    
        25.00       25.00       25.00       25.00       25.00       25.00       25.00       25.00       25.00       25.00    
        25.00       25.00       25.00       25.00       25.00       25.00       25.00       25.00       25.00       25.00    
        25.00       25.00       25.00       25.00       25.00       25.00       25.00       25.00       25.00       25.00    
   2    27.66       27.20       25.86       25.32       25.12       25.04       25.02       25.01       25.00       25.00    
        25.00       25.00       25.00       25.00       25.00       25.00       25.00       25.00       25.00       25.00    
        25.00       25.00       25.00       25.00       25.00       25.00       25.00       25.00       25.00       25.00    
        25.00       25.00       25.00       25.00       25.00       25.00       25.00       25.00       25.00       25.00    
   3    26.07       25.86       25.43       25.19       25.08       25.03       25.01       25.00       25.00       25.00    
        25.00       25.00       25.00       25.00       25.00       25.00       25.00       25.00       25.00       25.00    
        25.00       25.00       25.00       25.00       25.00       25.00       25.00       25.00       25.00       25.00    
        25.00       25.00       25.00       25.00       25.00       25.00       25.00       25.00       25.00       25.00    
   4    25.39       25.32       25.19       25.09       25.04       25.02       25.01       25.00       25.00       25.00    
        25.00       25.00       25.00       25.00       25.00       25.00       25.00       25.00       25.00       25.00    
        25.00       25.00       25.00       25.00       25.00       25.00       25.00       25.00       25.00       25.00    
        25.00       25.00       25.00       25.00       25.00       25.00       25.00       25.00       25.00       25.00    
   5    25.14       25.12       25.08       25.04       25.02       25.01       25.00       25.00       25.00       25.00    
        25.00       25.00       25.00       25.00       25.00       25.00       25.00       25.00       25.00       25.00    
        25.00       25.00       25.00       25.00       25.00       25.00       25.00       25.00       25.00       25.00    
        25.00       25.00       25.00       25.00       25.00       25.00       25.00       25.00       25.00       25.00    
   6    25.05       25.04       25.03       25.02       25.01       25.01       25.00       25.00       25.00       25.00    
        25.00       25.00       25.00       25.00       25.00       25.00       25.00       25.00       25.00       25.00    
        25.00       25.00       25.00       25.00       25.00       25.00       25.00       25.00       25.00       25.00    
        25.00       25.00       25.00       25.00       25.00       25.00       25.00       25.00       25.00       25.00    
   7    25.02       25.02       25.01       25.01       25.00       25.00       25.00       25.00       25.00       25.00    
        25.00       25.00       25.00       25.00       25.00       25.00       25.00       25.00       25.00       25.00    
        25.00       25.00       25.00       25.00       25.00       25.00       25.00       25.00       25.00       25.00    
        25.00       25.00       25.00       25.00       25.00       25.00       25.00       25.00       25.00       25.00    
   8    25.01       25.01       25.00       25.00       25.00       25.00       25.00       25.00       25.00       25.00    
        25.00       25.00       25.00       25.00       25.00       25.00       25.00       25.00       25.00       25.00    
        25.00       25.00       25.00       25.00       25.00       25.00       25.00       25.00       25.00       25.00    
        25.00       25.00       25.00       25.00       25.00       25.00       25.00       25.00       25.00       25.00    
   9    25.00       25.00       25.00       25.00       25.00       25.00       25.00       25.00       25.00       25.00    
        25.00       25.00       25.00       25.00       25.00       25.00       25.00       25.00       25.00       25.00    
        25.00       25.00       25.00       25.00       25.00       25.00       25.00       25.00       25.00       25.00    
        25.00       25.00       25.00       25.00       25.00       25.00       25.00       25.00       25.00       25.00    
  10    25.00       25.00       25.00       25.00       25.00       25.00       25.00       25.00       25.00       25.00    
        25.00       25.00       25.00       25.00       25.00       25.00       25.00       25.00       25.00       25.00    
        25.00       25.00       25.00       25.00       25.00       25.00       25.00       25.00       25.00       25.00    
        25.00       25.00       25.00       25.00       25.00       25.00       25.00       25.00       25.00       25.00    
  11    25.00       25.00       25.00       25.00       25.00       25.00       25.00       25.00       25.00       25.00    
        25.00       25.00       25.00       25.00       25.00       25.00       25.00       25.00       25.00       25.00    
        25.00       25.00       25.00       25.00       25.00       25.00       25.00       25.00       25.00       25.00    
        25.00       25.00       25.00       25.00       25.00       25.00       25.00       25.00       25.00       25.00    
  12    25.00       25.00       25.00       25.00       25.00       25.00       25.00       25.00       25.00       25.00    
        25.00       25.00       25.00       25.00       25.00       25.00       25.00       25.00       25.00       25.00    
        25.00       25.00       25.00       25.00       25.00       25.00       25.00       25.00       25.00       25.00    
        25.00       25.00       25.00       25.00       25.00       25.00       25.00       25.00       25.00       25.00    
  13    25.00       25.00       25.00       25.00       25.00       25.00       25.00       25.00       25.00       25.00    
        25.00       25.00       25.00       25.00       25.00       25.00       25.00       25.00       25.00       25.00    
        25.00       25.00       25.00       25.00       25.00       25.00       25.00       25.00       25.00       25.00    
        25.00       25.00       25.00       25.00       25.00       25.00       25.00       25.00       25.00       25.00    
  14    25.00       25.00       25.00       25.00       25.00       25.00       25.00       25.00       25.00       25.00    
        25.00       25.00       25.00       25.00       25.00       25.00       25.00       25.00       25.00       25.00    
        25.00       25.00       25.00       25.00       25.00       25.00       25.00       25.00       25.00       25.00    
        25.00       25.00       25.00       25.00       25.00       25.00       25.00       25.00       25.00       25.00    
  15    25.00       25.00       25.00       25.00       25.00       25.00       25.00       25.00       25.00       25.00    
        25.00       25.00       25.00       25.00       25.00       25.00       25.00       25.00       25.00       25.00    
        25.00       25.00       25.00       25.00       25.00       25.00       25.00       25.00       25.00       25.00    
        25.00       25.00       25.00       25.00       25.00       25.00       25.00       25.00       25.00       25.00    
  16    25.00       25.00       25.00       25.00       25.00       25.00       25.00       25.00       25.00       25.00    
        25.00       25.00       25.00       25.00       25.00       25.00       25.00       25.00       25.00       25.00    
        25.00       25.00       25.00       25.00       25.00       25.00       25.00       25.00       25.00       25.00    
        25.00       25.00       25.00       25.00       25.00       25.00       25.00       25.00       25.00       25.00    
  17    25.00       25.00       25.00       25.00       25.00       25.00       25.00       25.00       25.00       25.00    
        25.00       25.00       25.00       25.00       25.00       25.00       25.00       25.00       25.00       25.00    
        25.00       25.00       25.00       25.00       25.00       25.00       25.00       25.00       25.00       25.00    
        25.00       25.00       25.00       25.00       25.00       25.00       25.00       25.00       25.00       25.00    
  18    25.00       25.00       25.00       25.00       25.00       25.00       25.00       25.00       25.00       25.00    
        25.00       25.00       25.00       25.00       25.00       25.00       25.00       25.00       25.00       25.00    
        25.00       25.00       25.00       25.00       25.00       25.00       25.00       25.00       25.00       25.00    
        25.00       25.00       25.00       25.00       25.00       25.00       25.00       25.00       25.00       25.00    
  19    25.00       25.00       25.00       25.00       25.00       25.00       25.00       25.00       25.00       25.00    
        25.00       25.00       25.00       25.00       25.00       25.00       25.00       25.00       25.00       25.00    
        25.00       25.00       25.00       25.00       25.00       25.00       25.00       25.00       25.00       25.00    
        25.00       25.00       25.00       25.00       25.00       25.00       25.00       25.00       25.00       25.00    
  20    25.00       25.00       25.00       25.00       25.00       25.00       25.00       25.00       25.00       25.00    
        25.00       25.00       25.00       25.00       25.00       25.00       25.00       25.00       25.00       25.00    
        25.00       25.00       25.00       25.00       25.00       25.00       25.00       25.00       25.00       25.00    
        25.00       25.00       25.00       25.00       25.00       25.00       25.00       25.00       25.00       25.00    
  21    25.00       25.00       25.00       25.00       25.00       25.00       25.00       25.00       25.00       25.00    
        25.00       25.00       25.00       25.00       25.00       25.00       25.00       25.00       25.00       25.00    
        25.00       25.00       25.00       25.00       25.00       25.00       25.00       25.00       25.00       25.00    
        25.00       25.00       25.00       25.00       25.00       25.00       25.00       25.00       25.00       25.00    
  22    25.00       25.00       25.00       25.00       25.00       25.00       25.00       25.00       25.00       25.00    
        25.00       25.00       25.00       25.00       25.00       25.00       25.00       25.00       25.00       25.00    
        25.00       25.00       25.00       25.00       25.00       25.00       25.00       25.00       25.00       25.00    
        25.00       25.00       25.00       25.00       25.00       25.00       25.00       25.00       25.00       25.00    
  23    25.00       25.00       25.00       25.00       25.00       25.00       25.00       25.00       25.00       25.00    
        25.00       25.00       25.00       25.00       25.00       25.00       25.00       25.00       25.00       25.00    
        25.00       25.00       25.00       25.00       25.00       25.00       25.00       25.00       25.00       25.00    
        25.00       25.00       25.00       25.00       25.00       25.00       25.00       25.00       25.00       25.00    
  24    25.00       25.00       25.00       25.00       25.00       25.00       25.00       25.00       25.00       25.00    
        25.00       25.00       25.00       25.00       25.00       25.00       25.00       25.00       25.00       25.00    
        25.00       25.00       25.00       25.00       25.00       25.00       25.00       25.00       25.00       25.00    
        25.00       25.00       25.00       25.00       25.00       25.00       25.00       25.00       25.00       25.00    
  25    25.00       25.00       25.00       25.00       25.00       25.00       25.00       25.00       25.00       25.00    
        25.00       25.00       25.00       25.00       25.00       25.00       25.00       25.00       25.00       25.00    
        25.00       25.00       25.00       25.00       25.00       25.00       25.00       25.00       25.00       25.00    
        25.00       25.00       25.00       25.00       25.00       25.00       25.00       25.00       25.00       25.00    
  26    25.00       25.00       25.00       25.00       25.00       25.00       25.00       25.00       25.00       25.00    
        25.00       25.00       25.00       25.00       25.00       25.00       25.00       25.00       25.00       25.00    
        25.00       25.00       25.00       25.00       25.00       25.00       25.00       25.00       25.00       25.00    
        25.00       25.00       25.00       25.00       25.00       25.00       25.00       25.00       25.00       25.00    
  27    25.00       25.00       25.00       25.00       25.00       25.00       25.00       25.00       25.00       25.00    
        25.00       25.00       25.00       25.00       25.00       25.00       25.00       25.00       25.00       25.00    
        25.00       25.00       25.00       25.00       25.00       25.00       25.00       25.00       25.00       25.00    
        25.00       25.00       25.00       25.00       25.00       25.00       25.00       25.00       25.00       25.00    
  28    25.00       25.00       25.00       25.00       25.00       25.00       25.00       25.00       25.00       25.00    
        25.00       25.00       25.00       25.00       25.00       25.00       25.00       25.00       25.00       25.00    
        25.00       25.00       25.00       25.00       25.00       25.00       25.00       25.00       25.00       25.00    
        25.00       25.00       25.00       25.00       25.00       25.00       25.00       25.00       25.00       25.00    
  29    25.00       25.00       25.00       25.00       25.00       25.00       25.00       25.00       25.00       25.00    
        25.00       25.00       25.00       25.00       25.00       25.00       25.00       25.00       25.00       25.00    
        25.00       25.00       25.00       25.00       25.00       25.00       25.00       25.00       25.00       25.00    
        25.00       25.00       25.00       25.00       25.00       25.00       25.00       25.00       25.00       25.00    
  30    25.00       25.00       25.00       25.00       25.00       25.00       25.00       25.00       25.00       25.00    
        25.00       25.00       25.00       25.00       25.00       25.00       25.00       25.00       25.00       25.00    
        25.00       25.00       25.00       25.00       25.00       25.00       25.00       25.00       25.00       25.00    
        25.00       25.00       25.00       25.00       25.00       25.00       25.00       25.00       25.00       25.00    
  31    25.00       25.00       25.00       25.00       25.00       25.00       25.00       25.00       25.00       25.00    
        25.00       25.00       25.00       25.00       25.00       25.00       25.00       25.00       25.00       25.00    
        25.00       25.00       25.00       25.00       25.00       25.00       25.00       25.00       25.00       25.00    
        25.00       25.00       25.00       25.00       25.00       25.00       25.00       25.00       25.00       25.00    
  32    25.00       25.00       25.00       25.00       25.00       25.00       25.00       25.00       25.00       25.00    
        25.00       25.00       25.00       25.00       25.00       25.00       25.00       25.00       25.00       25.00    
        25.00       25.00       25.00       25.00       25.00       25.00       25.00       25.00       25.00       25.00    
        25.00       25.00       25.00       25.00       25.00       25.00       25.00       25.00       25.00       25.00    
  33    25.00       25.00       25.00       25.00       25.00       25.00       25.00       25.00       25.00       25.00    
        25.00       25.00       25.00       25.00       25.00       25.00       25.00       25.00       25.00       25.00    
        25.00       25.00       25.00       25.00       25.00       25.00       25.00       25.00       25.00       25.00    
        25.00       25.00       25.00       25.00       25.00       25.00       25.00       25.00       25.00       25.00    
  34    25.00       25.00       25.00       25.00       25.00       25.00       25.00       25.00       25.00       25.00    
        25.00       25.00       25.00       25.00       25.00       25.00       25.00       25.00       25.00       25.00    
        25.00       25.00       25.00       25.00       25.00       25.00       25.00       25.00       25.00       25.00    
        25.00       25.00       25.00       25.00       25.00       25.00       25.00       25.00       25.00       25.00    
  35    25.00       25.00       25.00       25.00       25.00       25.00       25.00       25.00       25.00       25.00    
        25.00       25.00       25.00       25.00       25.00       25.00       25.00       25.00       25.00       25.00    
        25.00       25.00       25.00       25.00       25.00       25.00       25.00       25.00       25.00       25.00    
        25.00       25.00       25.00       25.00       25.00       25.00       25.00       25.00       25.00       25.00    
  36    25.00       25.00       25.00       25.00       25.00       25.00       25.00       25.00       25.00       25.00    
        25.00       25.00       25.00       25.00       25.00       25.00       25.00       25.00       25.00       25.00    
        25.00       25.00       25.00       25.00       25.00       25.00       25.00       25.00       25.00       25.00    
        25.00       25.00       25.00       25.00       25.00       25.00       25.00       25.00       25.00       25.00    
  37    25.00       25.00       25.00       25.00       25.00       25.00       25.00       25.00       25.00       25.00    
        25.00       25.00       25.00       25.00       25.00       25.00       25.00       25.00       25.00       25.00    
        25.00       25.00       25.00       25.00       25.00       25.00       25.00       25.00       25.00       25.00    
        25.00       25.00       25.00       25.00       25.00       25.00       25.00       25.00       25.00       25.00    
  38    25.00       25.00       25.00       25.00       25.00       25.00       25.00       25.00       25.00       25.00    
        25.00       25.00       25.00       25.00       25.00       25.00       25.00       25.00       25.00       25.00    
        25.00       25.00       25.00       25.00       25.00       25.00       25.00       25.00       25.00       25.00    
        25.00       25.00       25.00       25.00       25.00       25.00       25.00       25.00       25.00       25.00    
  39    25.00       25.00       25.00       25.00       25.00       25.00       25.00       25.00       25.00       25.00    
        25.00       25.00       25.00       25.00       25.00       25.00       25.00       25.00       25.00       25.00    
        25.00       25.00       25.00       25.00       25.00       25.00       25.00       25.00       25.00       25.00    
        25.00       25.00       25.00       25.00       25.00       25.00       25.00       25.00       25.00       25.00    
  40    25.00       25.00       25.00       25.00       25.00       25.00       25.00       25.00       25.00       25.00    
        25.00       25.00       25.00       25.00       25.00       25.00       25.00       25.00       25.00       25.00    
        25.00       25.00       25.00       25.00       25.00       25.00       25.00       25.00       25.00       25.00    
        25.00       25.00       25.00       25.00       25.00       25.00       25.00       25.00       25.00       25.00    
1
              HEAD IN LAYER 13 AT END OF TIME STEP 1 IN STRESS PERIOD 1
  ---------------------------------------------------------------------------

            1           2           3           4           5           6           7           8           9          10
           11          12          13          14          15          16          17          18          19          20
           21          22          23          24          25          26          27          28          29          30
           31          32          33          34          35          36          37          38          39          40
 ........................................................................................................................
   1    28.15       27.57       26.10       25.42       25.15       25.06       25.02       25.01       25.00       25.00    
        25.00       25.00       25.00       25.00       25.00       25.00       25.00       25.00       25.00       25.00    
        25.00       25.00       25.00       25.00       25.00       25.00       25.00       25.00       25.00       25.00    
        25.00       25.00       25.00       25.00       25.00       25.00       25.00       25.00       25.00       25.00    
   2    27.57       27.10       25.89       25.34       25.13       25.05       25.02       25.01       25.00       25.00    
        25.00       25.00       25.00       25.00       25.00       25.00       25.00       25.00       25.00       25.00    
        25.00       25.00       25.00       25.00       25.00       25.00       25.00       25.00       25.00       25.00    
        25.00       25.00       25.00       25.00       25.00       25.00       25.00       25.00       25.00       25.00    
   3    26.10       25.89       25.45       25.20       25.08       25.03       25.01       25.01       25.00       25.00    
        25.00       25.00       25.00       25.00       25.00       25.00       25.00       25.00       25.00       25.00    
        25.00       25.00       25.00       25.00       25.00       25.00       25.00       25.00       25.00       25.00    
        25.00       25.00       25.00       25.00       25.00       25.00       25.00       25.00       25.00       25.00    
   4    25.42       25.34       25.20       25.10       25.05       25.02       25.01       25.00       25.00       25.00    
        25.00       25.00       25.00       25.00       25.00       25.00       25.00       25.00       25.00       25.00    
        25.00       25.00       25.00       25.00       25.00       25.00       25.00       25.00       25.00       25.00    
        25.00       25.00       25.00       25.00       25.00       25.00       25.00       25.00       25.00       25.00    
   5    25.15       25.13       25.08       25.05       25.02       25.01       25.00       25.00       25.00       25.00    
        25.00       25.00       25.00       25.00       25.00       25.00       25.00       25.00       25.00       25.00    
        25.00       25.00       25.00       25.00       25.00       25.00       25.00       25.00       25.00       25.00    
        25.00       25.00       25.00       25.00       25.00       25.00       25.00       25.00       25.00       25.00    
   6    25.06       25.05       25.03       25.02       25.01       25.01       25.00       25.00       25.00       25.00    
        25.00       25.00       25.00       25.00       25.00       25.00       25.00       25.00       25.00       25.00    
        25.00       25.00       25.00       25.00       25.00       25.00       25.00       25.00       25.00       25.00    
        25.00       25.00       25.00       25.00       25.00       25.00       25.00       25.00       25.00       25.00    
   7    25.02       25.02       25.01       25.01       25.00       25.00       25.00       25.00       25.00       25.00    
        25.00       25.00       25.00       25.00       25.00       25.00       25.00       25.00       25.00       25.00    
        25.00       25.00       25.00       25.00       25.00       25.00       25.00       25.00       25.00       25.00    
        25.00       25.00       25.00       25.00       25.00       25.00       25.00       25.00       25.00       25.00    
   8    25.01       25.01       25.01       25.00       25.00       25.00       25.00       25.00       25.00       25.00    
        25.00       25.00       25.00       25.00       25.00       25.00       25.00       25.00       25.00       25.00    
        25.00       25.00       25.00       25.00       25.00       25.00       25.00       25.00       25.00       25.00    
        25.00       25.00       25.00       25.00       25.00       25.00       25.00       25.00       25.00       25.00    
   9    25.00       25.00       25.00       25.00       25.00       25.00       25.00       25.00       25.00       25.00    
        25.00       25.00       25.00       25.00       25.00       25.00       25.00       25.00       25.00       25.00    
        25.00       25.00       25.00       25.00       25.00       25.00       25.00       25.00       25.00       25.00    
        25.00       25.00       25.00       25.00       25.00       25.00       25.00       25.00       25.00       25.00    
  10    25.00       25.00       25.00       25.00       25.00       25.00       25.00       25.00       25.00       25.00    
        25.00       25.00       25.00       25.00       25.00       25.00       25.00       25.00       25.00       25.00    
        25.00       25.00       25.00       25.00       25.00       25.00       25.00       25.00       25.00       25.00    
        25.00       25.00       25.00       25.00       25.00       25.00       25.00       25.00       25.00       25.00    
  11    25.00       25.00       25.00       25.00       25.00       25.00       25.00       25.00       25.00       25.00    
        25.00       25.00       25.00       25.00       25.00       25.00       25.00       25.00       25.00       25.00    
        25.00       25.00       25.00       25.00       25.00       25.00       25.00       25.00       25.00       25.00    
        25.00       25.00       25.00       25.00       25.00       25.00       25.00       25.00       25.00       25.00    
  12    25.00       25.00       25.00       25.00       25.00       25.00       25.00       25.00       25.00       25.00    
        25.00       25.00       25.00       25.00       25.00       25.00       25.00       25.00       25.00       25.00    
        25.00       25.00       25.00       25.00       25.00       25.00       25.00       25.00       25.00       25.00    
        25.00       25.00       25.00       25.00       25.00       25.00       25.00       25.00       25.00       25.00    
  13    25.00       25.00       25.00       25.00       25.00       25.00       25.00       25.00       25.00       25.00    
        25.00       25.00       25.00       25.00       25.00       25.00       25.00       25.00       25.00       25.00    
        25.00       25.00       25.00       25.00       25.00       25.00       25.00       25.00       25.00       25.00    
        25.00       25.00       25.00       25.00       25.00       25.00       25.00       25.00       25.00       25.00    
  14    25.00       25.00       25.00       25.00       25.00       25.00       25.00       25.00       25.00       25.00    
        25.00       25.00       25.00       25.00       25.00       25.00       25.00       25.00       25.00       25.00    
        25.00       25.00       25.00       25.00       25.00       25.00       25.00       25.00       25.00       25.00    
        25.00       25.00       25.00       25.00       25.00       25.00       25.00       25.00       25.00       25.00    
  15    25.00       25.00       25.00       25.00       25.00       25.00       25.00       25.00       25.00       25.00    
        25.00       25.00       25.00       25.00       25.00       25.00       25.00       25.00       25.00       25.00    
        25.00       25.00       25.00       25.00       25.00       25.00       25.00       25.00       25.00       25.00    
        25.00       25.00       25.00       25.00       25.00       25.00       25.00       25.00       25.00       25.00    
  16    25.00       25.00       25.00       25.00       25.00       25.00       25.00       25.00       25.00       25.00    
        25.00       25.00       25.00       25.00       25.00       25.00       25.00       25.00       25.00       25.00    
        25.00       25.00       25.00       25.00       25.00       25.00       25.00       25.00       25.00       25.00    
        25.00       25.00       25.00       25.00       25.00       25.00       25.00       25.00       25.00       25.00    
  17    25.00       25.00       25.00       25.00       25.00       25.00       25.00       25.00       25.00       25.00    
        25.00       25.00       25.00       25.00       25.00       25.00       25.00       25.00       25.00       25.00    
        25.00       25.00       25.00       25.00       25.00       25.00       25.00       25.00       25.00       25.00    
        25.00       25.00       25.00       25.00       25.00       25.00       25.00       25.00       25.00       25.00    
  18    25.00       25.00       25.00       25.00       25.00       25.00       25.00       25.00       25.00       25.00    
        25.00       25.00       25.00       25.00       25.00       25.00       25.00       25.00       25.00       25.00    
        25.00       25.00       25.00       25.00       25.00       25.00       25.00       25.00       25.00       25.00    
        25.00       25.00       25.00       25.00       25.00       25.00       25.00       25.00       25.00       25.00    
  19    25.00       25.00       25.00       25.00       25.00       25.00       25.00       25.00       25.00       25.00    
        25.00       25.00       25.00       25.00       25.00       25.00       25.00       25.00       25.00       25.00    
        25.00       25.00       25.00       25.00       25.00       25.00       25.00       25.00       25.00       25.00    
        25.00       25.00       25.00       25.00       25.00       25.00       25.00       25.00       25.00       25.00    
  20    25.00       25.00       25.00       25.00       25.00       25.00       25.00       25.00       25.00       25.00    
        25.00       25.00       25.00       25.00       25.00       25.00       25.00       25.00       25.00       25.00    
        25.00       25.00       25.00       25.00       25.00       25.00       25.00       25.00       25.00       25.00    
        25.00       25.00       25.00       25.00       25.00       25.00       25.00       25.00       25.00       25.00    
  21    25.00       25.00       25.00       25.00       25.00       25.00       25.00       25.00       25.00       25.00    
        25.00       25.00       25.00       25.00       25.00       25.00       25.00       25.00       25.00       25.00    
        25.00       25.00       25.00       25.00       25.00       25.00       25.00       25.00       25.00       25.00    
        25.00       25.00       25.00       25.00       25.00       25.00       25.00       25.00       25.00       25.00    
  22    25.00       25.00       25.00       25.00       25.00       25.00       25.00       25.00       25.00       25.00    
        25.00       25.00       25.00       25.00       25.00       25.00       25.00       25.00       25.00       25.00    
        25.00       25.00       25.00       25.00       25.00       25.00       25.00       25.00       25.00       25.00    
        25.00       25.00       25.00       25.00       25.00       25.00       25.00       25.00       25.00       25.00    
  23    25.00       25.00       25.00       25.00       25.00       25.00       25.00       25.00       25.00       25.00    
        25.00       25.00       25.00       25.00       25.00       25.00       25.00       25.00       25.00       25.00    
        25.00       25.00       25.00       25.00       25.00       25.00       25.00       25.00       25.00       25.00    
        25.00       25.00       25.00       25.00       25.00       25.00       25.00       25.00       25.00       25.00    
  24    25.00       25.00       25.00       25.00       25.00       25.00       25.00       25.00       25.00       25.00    
        25.00       25.00       25.00       25.00       25.00       25.00       25.00       25.00       25.00       25.00    
        25.00       25.00       25.00       25.00       25.00       25.00       25.00       25.00       25.00       25.00    
        25.00       25.00       25.00       25.00       25.00       25.00       25.00       25.00       25.00       25.00    
  25    25.00       25.00       25.00       25.00       25.00       25.00       25.00       25.00       25.00       25.00    
        25.00       25.00       25.00       25.00       25.00       25.00       25.00       25.00       25.00       25.00    
        25.00       25.00       25.00       25.00       25.00       25.00       25.00       25.00       25.00       25.00    
        25.00       25.00       25.00       25.00       25.00       25.00       25.00       25.00       25.00       25.00    
  26    25.00       25.00       25.00       25.00       25.00       25.00       25.00       25.00       25.00       25.00    
        25.00       25.00       25.00       25.00       25.00       25.00       25.00       25.00       25.00       25.00    
        25.00       25.00       25.00       25.00       25.00       25.00       25.00       25.00       25.00       25.00    
        25.00       25.00       25.00       25.00       25.00       25.00       25.00       25.00       25.00       25.00    
  27    25.00       25.00       25.00       25.00       25.00       25.00       25.00       25.00       25.00       25.00    
        25.00       25.00       25.00       25.00       25.00       25.00       25.00       25.00       25.00       25.00    
        25.00       25.00       25.00       25.00       25.00       25.00       25.00       25.00       25.00       25.00    
        25.00       25.00       25.00       25.00       25.00       25.00       25.00       25.00       25.00       25.00    
  28    25.00       25.00       25.00       25.00       25.00       25.00       25.00       25.00       25.00       25.00    
        25.00       25.00       25.00       25.00       25.00       25.00       25.00       25.00       25.00       25.00    
        25.00       25.00       25.00       25.00       25.00       25.00       25.00       25.00       25.00       25.00    
        25.00       25.00       25.00       25.00       25.00       25.00       25.00       25.00       25.00       25.00    
  29    25.00       25.00       25.00       25.00       25.00       25.00       25.00       25.00       25.00       25.00    
        25.00       25.00       25.00       25.00       25.00       25.00       25.00       25.00       25.00       25.00    
        25.00       25.00       25.00       25.00       25.00       25.00       25.00       25.00       25.00       25.00    
        25.00       25.00       25.00       25.00       25.00       25.00       25.00       25.00       25.00       25.00    
  30    25.00       25.00       25.00       25.00       25.00       25.00       25.00       25.00       25.00       25.00    
        25.00       25.00       25.00       25.00       25.00       25.00       25.00       25.00       25.00       25.00    
        25.00       25.00       25.00       25.00       25.00       25.00       25.00       25.00       25.00       25.00    
        25.00       25.00       25.00       25.00       25.00       25.00       25.00       25.00       25.00       25.00    
  31    25.00       25.00       25.00       25.00       25.00       25.00       25.00       25.00       25.00       25.00    
        25.00       25.00       25.00       25.00       25.00       25.00       25.00       25.00       25.00       25.00    
        25.00       25.00       25.00       25.00       25.00       25.00       25.00       25.00       25.00       25.00    
        25.00       25.00       25.00       25.00       25.00       25.00       25.00       25.00       25.00       25.00    
  32    25.00       25.00       25.00       25.00       25.00       25.00       25.00       25.00       25.00       25.00    
        25.00       25.00       25.00       25.00       25.00       25.00       25.00       25.00       25.00       25.00    
        25.00       25.00       25.00       25.00       25.00       25.00       25.00       25.00       25.00       25.00    
        25.00       25.00       25.00       25.00       25.00       25.00       25.00       25.00       25.00       25.00    
  33    25.00       25.00       25.00       25.00       25.00       25.00       25.00       25.00       25.00       25.00    
        25.00       25.00       25.00       25.00       25.00       25.00       25.00       25.00       25.00       25.00    
        25.00       25.00       25.00       25.00       25.00       25.00       25.00       25.00       25.00       25.00    
        25.00       25.00       25.00       25.00       25.00       25.00       25.00       25.00       25.00       25.00    
  34    25.00       25.00       25.00       25.00       25.00       25.00       25.00       25.00       25.00       25.00    
        25.00       25.00       25.00       25.00       25.00       25.00       25.00       25.00       25.00       25.00    
        25.00       25.00       25.00       25.00       25.00       25.00       25.00       25.00       25.00       25.00    
        25.00       25.00       25.00       25.00       25.00       25.00       25.00       25.00       25.00       25.00    
  35    25.00       25.00       25.00       25.00       25.00       25.00       25.00       25.00       25.00       25.00    
        25.00       25.00       25.00       25.00       25.00       25.00       25.00       25.00       25.00       25.00    
        25.00       25.00       25.00       25.00       25.00       25.00       25.00       25.00       25.00       25.00    
        25.00       25.00       25.00       25.00       25.00       25.00       25.00       25.00       25.00       25.00    
  36    25.00       25.00       25.00       25.00       25.00       25.00       25.00       25.00       25.00       25.00    
        25.00       25.00       25.00       25.00       25.00       25.00       25.00       25.00       25.00       25.00    
        25.00       25.00       25.00       25.00       25.00       25.00       25.00       25.00       25.00       25.00    
        25.00       25.00       25.00       25.00       25.00       25.00       25.00       25.00       25.00       25.00    
  37    25.00       25.00       25.00       25.00       25.00       25.00       25.00       25.00       25.00       25.00    
        25.00       25.00       25.00       25.00       25.00       25.00       25.00       25.00       25.00       25.00    
        25.00       25.00       25.00       25.00       25.00       25.00       25.00       25.00       25.00       25.00    
        25.00       25.00       25.00       25.00       25.00       25.00       25.00       25.00       25.00       25.00    
  38    25.00       25.00       25.00       25.00       25.00       25.00       25.00       25.00       25.00       25.00    
        25.00       25.00       25.00       25.00       25.00       25.00       25.00       25.00       25.00       25.00    
        25.00       25.00       25.00       25.00       25.00       25.00       25.00       25.00       25.00       25.00    
        25.00       25.00       25.00       25.00       25.00       25.00       25.00       25.00       25.00       25.00    
  39    25.00       25.00       25.00       25.00       25.00       25.00       25.00       25.00       25.00       25.00    
        25.00       25.00       25.00       25.00       25.00       25.00       25.00       25.00       25.00       25.00    
        25.00       25.00       25.00       25.00       25.00       25.00       25.00       25.00       25.00       25.00    
        25.00       25.00       25.00       25.00       25.00       25.00       25.00       25.00       25.00       25.00    
  40    25.00       25.00       25.00       25.00       25.00       25.00       25.00       25.00       25.00       25.00    
        25.00       25.00       25.00       25.00       25.00       25.00       25.00       25.00       25.00       25.00    
        25.00       25.00       25.00       25.00       25.00       25.00       25.00       25.00       25.00       25.00    
        25.00       25.00       25.00       25.00       25.00       25.00       25.00       25.00       25.00       25.00    
1
              HEAD IN LAYER 14 AT END OF TIME STEP 1 IN STRESS PERIOD 1
  ---------------------------------------------------------------------------

            1           2           3           4           5           6           7           8           9          10
           11          12          13          14          15          16          17          18          19          20
           21          22          23          24          25          26          27          28          29          30
           31          32          33          34          35          36          37          38          39          40
 ........................................................................................................................
   1    28.11       27.52       26.12       25.43       25.16       25.06       25.02       25.01       25.00       25.00    
        25.00       25.00       25.00       25.00       25.00       25.00       25.00       25.00       25.00       25.00    
        25.00       25.00       25.00       25.00       25.00       25.00       25.00       25.00       25.00       25.00    
        25.00       25.00       25.00       25.00       25.00       25.00       25.00       25.00       25.00       25.00    
   2    27.52       27.06       25.90       25.35       25.13       25.05       25.02       25.01       25.00       25.00    
        25.00       25.00       25.00       25.00       25.00       25.00       25.00       25.00       25.00       25.00    
        25.00       25.00       25.00       25.00       25.00       25.00       25.00       25.00       25.00       25.00    
        25.00       25.00       25.00       25.00       25.00       25.00       25.00       25.00       25.00       25.00    
   3    26.12       25.90       25.46       25.20       25.08       25.03       25.01       25.01       25.00       25.00    
        25.00       25.00       25.00       25.00       25.00       25.00       25.00       25.00       25.00       25.00    
        25.00       25.00       25.00       25.00       25.00       25.00       25.00       25.00       25.00       25.00    
        25.00       25.00       25.00       25.00       25.00       25.00       25.00       25.00       25.00       25.00    
   4    25.43       25.35       25.20       25.10       25.05       25.02       25.01       25.00       25.00       25.00    
        25.00       25.00       25.00       25.00       25.00       25.00       25.00       25.00       25.00       25.00    
        25.00       25.00       25.00       25.00       25.00       25.00       25.00       25.00       25.00       25.00    
        25.00       25.00       25.00       25.00       25.00       25.00       25.00       25.00       25.00       25.00    
   5    25.16       25.13       25.08       25.05       25.02       25.01       25.01       25.00       25.00       25.00    
        25.00       25.00       25.00       25.00       25.00       25.00       25.00       25.00       25.00       25.00    
        25.00       25.00       25.00       25.00       25.00       25.00       25.00       25.00       25.00       25.00    
        25.00       25.00       25.00       25.00       25.00       25.00       25.00       25.00       25.00       25.00    
   6    25.06       25.05       25.03       25.02       25.01       25.01       25.00       25.00       25.00       25.00    
        25.00       25.00       25.00       25.00       25.00       25.00       25.00       25.00       25.00       25.00    
        25.00       25.00       25.00       25.00       25.00       25.00       25.00       25.00       25.00       25.00    
        25.00       25.00       25.00       25.00       25.00       25.00       25.00       25.00       25.00       25.00    
   7    25.02       25.02       25.01       25.01       25.01       25.00       25.00       25.00       25.00       25.00    
        25.00       25.00       25.00       25.00       25.00       25.00       25.00       25.00       25.00       25.00    
        25.00       25.00       25.00       25.00       25.00       25.00       25.00       25.00       25.00       25.00    
        25.00       25.00       25.00       25.00       25.00       25.00       25.00       25.00       25.00       25.00    
   8    25.01       25.01       25.01       25.00       25.00       25.00       25.00       25.00       25.00       25.00    
        25.00       25.00       25.00       25.00       25.00       25.00       25.00       25.00       25.00       25.00    
        25.00       25.00       25.00       25.00       25.00       25.00       25.00       25.00       25.00       25.00    
        25.00       25.00       25.00       25.00       25.00       25.00       25.00       25.00       25.00       25.00    
   9    25.00       25.00       25.00       25.00       25.00       25.00       25.00       25.00       25.00       25.00    
        25.00       25.00       25.00       25.00       25.00       25.00       25.00       25.00       25.00       25.00    
        25.00       25.00       25.00       25.00       25.00       25.00       25.00       25.00       25.00       25.00    
        25.00       25.00       25.00       25.00       25.00       25.00       25.00       25.00       25.00       25.00    
  10    25.00       25.00       25.00       25.00       25.00       25.00       25.00       25.00       25.00       25.00    
        25.00       25.00       25.00       25.00       25.00       25.00       25.00       25.00       25.00       25.00    
        25.00       25.00       25.00       25.00       25.00       25.00       25.00       25.00       25.00       25.00    
        25.00       25.00       25.00       25.00       25.00       25.00       25.00       25.00       25.00       25.00    
  11    25.00       25.00       25.00       25.00       25.00       25.00       25.00       25.00       25.00       25.00    
        25.00       25.00       25.00       25.00       25.00       25.00       25.00       25.00       25.00       25.00    
        25.00       25.00       25.00       25.00       25.00       25.00       25.00       25.00       25.00       25.00    
        25.00       25.00       25.00       25.00       25.00       25.00       25.00       25.00       25.00       25.00    
  12    25.00       25.00       25.00       25.00       25.00       25.00       25.00       25.00       25.00       25.00    
        25.00       25.00       25.00       25.00       25.00       25.00       25.00       25.00       25.00       25.00    
        25.00       25.00       25.00       25.00       25.00       25.00       25.00       25.00       25.00       25.00    
        25.00       25.00       25.00       25.00       25.00       25.00       25.00       25.00       25.00       25.00    
  13    25.00       25.00       25.00       25.00       25.00       25.00       25.00       25.00       25.00       25.00    
        25.00       25.00       25.00       25.00       25.00       25.00       25.00       25.00       25.00       25.00    
        25.00       25.00       25.00       25.00       25.00       25.00       25.00       25.00       25.00       25.00    
        25.00       25.00       25.00       25.00       25.00       25.00       25.00       25.00       25.00       25.00    
  14    25.00       25.00       25.00       25.00       25.00       25.00       25.00       25.00       25.00       25.00    
        25.00       25.00       25.00       25.00       25.00       25.00       25.00       25.00       25.00       25.00    
        25.00       25.00       25.00       25.00       25.00       25.00       25.00       25.00       25.00       25.00    
        25.00       25.00       25.00       25.00       25.00       25.00       25.00       25.00       25.00       25.00    
  15    25.00       25.00       25.00       25.00       25.00       25.00       25.00       25.00       25.00       25.00    
        25.00       25.00       25.00       25.00       25.00       25.00       25.00       25.00       25.00       25.00    
        25.00       25.00       25.00       25.00       25.00       25.00       25.00       25.00       25.00       25.00    
        25.00       25.00       25.00       25.00       25.00       25.00       25.00       25.00       25.00       25.00    
  16    25.00       25.00       25.00       25.00       25.00       25.00       25.00       25.00       25.00       25.00    
        25.00       25.00       25.00       25.00       25.00       25.00       25.00       25.00       25.00       25.00    
        25.00       25.00       25.00       25.00       25.00       25.00       25.00       25.00       25.00       25.00    
        25.00       25.00       25.00       25.00       25.00       25.00       25.00       25.00       25.00       25.00    
  17    25.00       25.00       25.00       25.00       25.00       25.00       25.00       25.00       25.00       25.00    
        25.00       25.00       25.00       25.00       25.00       25.00       25.00       25.00       25.00       25.00    
        25.00       25.00       25.00       25.00       25.00       25.00       25.00       25.00       25.00       25.00    
        25.00       25.00       25.00       25.00       25.00       25.00       25.00       25.00       25.00       25.00    
  18    25.00       25.00       25.00       25.00       25.00       25.00       25.00       25.00       25.00       25.00    
        25.00       25.00       25.00       25.00       25.00       25.00       25.00       25.00       25.00       25.00    
        25.00       25.00       25.00       25.00       25.00       25.00       25.00       25.00       25.00       25.00    
        25.00       25.00       25.00       25.00       25.00       25.00       25.00       25.00       25.00       25.00    
  19    25.00       25.00       25.00       25.00       25.00       25.00       25.00       25.00       25.00       25.00    
        25.00       25.00       25.00       25.00       25.00       25.00       25.00       25.00       25.00       25.00    
        25.00       25.00       25.00       25.00       25.00       25.00       25.00       25.00       25.00       25.00    
        25.00       25.00       25.00       25.00       25.00       25.00       25.00       25.00       25.00       25.00    
  20    25.00       25.00       25.00       25.00       25.00       25.00       25.00       25.00       25.00       25.00    
        25.00       25.00       25.00       25.00       25.00       25.00       25.00       25.00       25.00       25.00    
        25.00       25.00       25.00       25.00       25.00       25.00       25.00       25.00       25.00       25.00    
        25.00       25.00       25.00       25.00       25.00       25.00       25.00       25.00       25.00       25.00    
  21    25.00       25.00       25.00       25.00       25.00       25.00       25.00       25.00       25.00       25.00    
        25.00       25.00       25.00       25.00       25.00       25.00       25.00       25.00       25.00       25.00    
        25.00       25.00       25.00       25.00       25.00       25.00       25.00       25.00       25.00       25.00    
        25.00       25.00       25.00       25.00       25.00       25.00       25.00       25.00       25.00       25.00    
  22    25.00       25.00       25.00       25.00       25.00       25.00       25.00       25.00       25.00       25.00    
        25.00       25.00       25.00       25.00       25.00       25.00       25.00       25.00       25.00       25.00    
        25.00       25.00       25.00       25.00       25.00       25.00       25.00       25.00       25.00       25.00    
        25.00       25.00       25.00       25.00       25.00       25.00       25.00       25.00       25.00       25.00    
  23    25.00       25.00       25.00       25.00       25.00       25.00       25.00       25.00       25.00       25.00    
        25.00       25.00       25.00       25.00       25.00       25.00       25.00       25.00       25.00       25.00    
        25.00       25.00       25.00       25.00       25.00       25.00       25.00       25.00       25.00       25.00    
        25.00       25.00       25.00       25.00       25.00       25.00       25.00       25.00       25.00       25.00    
  24    25.00       25.00       25.00       25.00       25.00       25.00       25.00       25.00       25.00       25.00    
        25.00       25.00       25.00       25.00       25.00       25.00       25.00       25.00       25.00       25.00    
        25.00       25.00       25.00       25.00       25.00       25.00       25.00       25.00       25.00       25.00    
        25.00       25.00       25.00       25.00       25.00       25.00       25.00       25.00       25.00       25.00    
  25    25.00       25.00       25.00       25.00       25.00       25.00       25.00       25.00       25.00       25.00    
        25.00       25.00       25.00       25.00       25.00       25.00       25.00       25.00       25.00       25.00    
        25.00       25.00       25.00       25.00       25.00       25.00       25.00       25.00       25.00       25.00    
        25.00       25.00       25.00       25.00       25.00       25.00       25.00       25.00       25.00       25.00    
  26    25.00       25.00       25.00       25.00       25.00       25.00       25.00       25.00       25.00       25.00    
        25.00       25.00       25.00       25.00       25.00       25.00       25.00       25.00       25.00       25.00    
        25.00       25.00       25.00       25.00       25.00       25.00       25.00       25.00       25.00       25.00    
        25.00       25.00       25.00       25.00       25.00       25.00       25.00       25.00       25.00       25.00    
  27    25.00       25.00       25.00       25.00       25.00       25.00       25.00       25.00       25.00       25.00    
        25.00       25.00       25.00       25.00       25.00       25.00       25.00       25.00       25.00       25.00    
        25.00       25.00       25.00       25.00       25.00       25.00       25.00       25.00       25.00       25.00    
        25.00       25.00       25.00       25.00       25.00       25.00       25.00       25.00       25.00       25.00    
  28    25.00       25.00       25.00       25.00       25.00       25.00       25.00       25.00       25.00       25.00    
        25.00       25.00       25.00       25.00       25.00       25.00       25.00       25.00       25.00       25.00    
        25.00       25.00       25.00       25.00       25.00       25.00       25.00       25.00       25.00       25.00    
        25.00       25.00       25.00       25.00       25.00       25.00       25.00       25.00       25.00       25.00    
  29    25.00       25.00       25.00       25.00       25.00       25.00       25.00       25.00       25.00       25.00    
        25.00       25.00       25.00       25.00       25.00       25.00       25.00       25.00       25.00       25.00    
        25.00       25.00       25.00       25.00       25.00       25.00       25.00       25.00       25.00       25.00    
        25.00       25.00       25.00       25.00       25.00       25.00       25.00       25.00       25.00       25.00    
  30    25.00       25.00       25.00       25.00       25.00       25.00       25.00       25.00       25.00       25.00    
        25.00       25.00       25.00       25.00       25.00       25.00       25.00       25.00       25.00       25.00    
        25.00       25.00       25.00       25.00       25.00       25.00       25.00       25.00       25.00       25.00    
        25.00       25.00       25.00       25.00       25.00       25.00       25.00       25.00       25.00       25.00    
  31    25.00       25.00       25.00       25.00       25.00       25.00       25.00       25.00       25.00       25.00    
        25.00       25.00       25.00       25.00       25.00       25.00       25.00       25.00       25.00       25.00    
        25.00       25.00       25.00       25.00       25.00       25.00       25.00       25.00       25.00       25.00    
        25.00       25.00       25.00       25.00       25.00       25.00       25.00       25.00       25.00       25.00    
  32    25.00       25.00       25.00       25.00       25.00       25.00       25.00       25.00       25.00       25.00    
        25.00       25.00       25.00       25.00       25.00       25.00       25.00       25.00       25.00       25.00    
        25.00       25.00       25.00       25.00       25.00       25.00       25.00       25.00       25.00       25.00    
        25.00       25.00       25.00       25.00       25.00       25.00       25.00       25.00       25.00       25.00    
  33    25.00       25.00       25.00       25.00       25.00       25.00       25.00       25.00       25.00       25.00    
        25.00       25.00       25.00       25.00       25.00       25.00       25.00       25.00       25.00       25.00    
        25.00       25.00       25.00       25.00       25.00       25.00       25.00       25.00       25.00       25.00    
        25.00       25.00       25.00       25.00       25.00       25.00       25.00       25.00       25.00       25.00    
  34    25.00       25.00       25.00       25.00       25.00       25.00       25.00       25.00       25.00       25.00    
        25.00       25.00       25.00       25.00       25.00       25.00       25.00       25.00       25.00       25.00    
        25.00       25.00       25.00       25.00       25.00       25.00       25.00       25.00       25.00       25.00    
        25.00       25.00       25.00       25.00       25.00       25.00       25.00       25.00       25.00       25.00    
  35    25.00       25.00       25.00       25.00       25.00       25.00       25.00       25.00       25.00       25.00    
        25.00       25.00       25.00       25.00       25.00       25.00       25.00       25.00       25.00       25.00    
        25.00       25.00       25.00       25.00       25.00       25.00       25.00       25.00       25.00       25.00    
        25.00       25.00       25.00       25.00       25.00       25.00       25.00       25.00       25.00       25.00    
  36    25.00       25.00       25.00       25.00       25.00       25.00       25.00       25.00       25.00       25.00    
        25.00       25.00       25.00       25.00       25.00       25.00       25.00       25.00       25.00       25.00    
        25.00       25.00       25.00       25.00       25.00       25.00       25.00       25.00       25.00       25.00    
        25.00       25.00       25.00       25.00       25.00       25.00       25.00       25.00       25.00       25.00    
  37    25.00       25.00       25.00       25.00       25.00       25.00       25.00       25.00       25.00       25.00    
        25.00       25.00       25.00       25.00       25.00       25.00       25.00       25.00       25.00       25.00    
        25.00       25.00       25.00       25.00       25.00       25.00       25.00       25.00       25.00       25.00    
        25.00       25.00       25.00       25.00       25.00       25.00       25.00       25.00       25.00       25.00    
  38    25.00       25.00       25.00       25.00       25.00       25.00       25.00       25.00       25.00       25.00    
        25.00       25.00       25.00       25.00       25.00       25.00       25.00       25.00       25.00       25.00    
        25.00       25.00       25.00       25.00       25.00       25.00       25.00       25.00       25.00       25.00    
        25.00       25.00       25.00       25.00       25.00       25.00       25.00       25.00       25.00       25.00    
  39    25.00       25.00       25.00       25.00       25.00       25.00       25.00       25.00       25.00       25.00    
        25.00       25.00       25.00       25.00       25.00       25.00       25.00       25.00       25.00       25.00    
        25.00       25.00       25.00       25.00       25.00       25.00       25.00       25.00       25.00       25.00    
        25.00       25.00       25.00       25.00       25.00       25.00       25.00       25.00       25.00       25.00    
  40    25.00       25.00       25.00       25.00       25.00       25.00       25.00       25.00       25.00       25.00    
        25.00       25.00       25.00       25.00       25.00       25.00       25.00       25.00       25.00       25.00    
        25.00       25.00       25.00       25.00       25.00       25.00       25.00       25.00       25.00       25.00    
        25.00       25.00       25.00       25.00       25.00       25.00       25.00       25.00       25.00       25.00    

 HEAD WILL BE SAVED ON UNIT   51 AT END OF TIME STEP    1, STRESS PERIOD    1
1
  VOLUMETRIC BUDGET FOR ENTIRE MODEL AT END OF TIME STEP    1, STRESS PERIOD   1
  ------------------------------------------------------------------------------

     CUMULATIVE VOLUMES      L**3       RATES FOR THIS TIME STEP      L**3/T
     ------------------                 ------------------------

           IN:                                      IN:
           ---                                      ---
             STORAGE     =           0.0000               STORAGE     =           0.0000
       CONSTANT HEAD     =           0.0000         CONSTANT HEAD     =           0.0000
            RECHARGE     =       59375.0000              RECHARGE     =        3125.0000

                TOTAL IN =       59375.0000                  TOTAL IN =        3125.0000

          OUT:                                     OUT:
          ----                                     ----
             STORAGE     =       59378.4805               STORAGE     =        3125.1831
       CONSTANT HEAD     =       3.9637E-02         CONSTANT HEAD     =       2.0862E-03
            RECHARGE     =           0.0000              RECHARGE     =           0.0000

               TOTAL OUT =       59378.5195                 TOTAL OUT =        3125.1853

                IN - OUT =          -3.5195                  IN - OUT =          -0.1853

     PERCENT DISCREPANCY =          -0.01         PERCENT DISCREPANCY =          -0.01






         TIME SUMMARY AT END OF TIME STEP    1 IN STRESS PERIOD    1
                    SECONDS     MINUTES      HOURS       DAYS        YEARS
                    -----------------------------------------------------------
   TIME STEP LENGTH 1.64160E+06  27360.      456.00      19.000     5.20192E-02
 STRESS PERIOD TIME 1.64160E+06  27360.      456.00      19.000     5.20192E-02
         TOTAL TIME 1.64160E+06  27360.      456.00      19.000     5.20192E-02
1
 
 SOLVING FOR HEAD 
                                                   Max.-Head-Change                        Max.-Flux-Residual
  Residual-Control   Outer-Iter.   Inner-Iter.     Column Row Layer    Max.-Head-Change    Column Row Layer    Max.-Flux-Residual            L2-New               L2-Old           Solver-Max-Delh
          0                 1           2             1    1     9       0.3133190340E+01       1    1    9       0.6116488361E+03      0.1118682450E+04      0.7166030683E-01      0.3133190340E+01
          0                 2           2             1    1     8      -0.1314936514E+01       1    1    8      -0.4958451285E+03      0.7805030608E+03      0.1118682450E+04     -0.1314936514E+01
          0                 3           2             2    2     9       0.2734265064E+00       2    2    9       0.1485889470E+03      0.1564759669E+03      0.7805030608E+03      0.2734265064E+00
          0                 4           2             1    2     9       0.2539921769E-01       1    2    9       0.9702391675E+01      0.1568369066E+02      0.1564759669E+03      0.2539921769E-01
          0                 5           2             1    2     9      -0.1013125070E-02       1    2    9      -0.3934049692E+00      0.5827387763E+00      0.1568369066E+02     -0.1013125070E-02
          0                 6           1             1    2     9       0.1228274881E-04       1    2    9       0.4967219713E-02      0.7324427504E-02      0.5827387763E+00      0.1228274881E-04

    ------------------------------------------------
       NWT REQUIRED            6 OUTER ITERATIONS 
       AND A TOTAL OF         11 INNER ITERATIONS.
    ------------------------------------------------

 NO OUTPUT CONTROL FOR STRESS PERIOD    1   TIME STEP    2
 
 SOLVING FOR HEAD 
                                                   Max.-Head-Change                        Max.-Flux-Residual
  Residual-Control   Outer-Iter.   Inner-Iter.     Column Row Layer    Max.-Head-Change    Column Row Layer    Max.-Flux-Residual            L2-New               L2-Old           Solver-Max-Delh
          0                 1           2             1    1     9       0.2503080787E+01       2    1    9       0.2876654066E+03      0.7283128362E+03      0.7324427504E-02      0.2503080787E+01
          0                 2           2             1    1     9      -0.2304631528E+00       2    2    9       0.1188243882E+03      0.1470849815E+03      0.7283128362E+03     -0.2304631528E+00
          0                 3           2             2    2     9      -0.1917016266E-01       2    2    9      -0.1157897017E+02      0.1309830437E+02      0.1470849815E+03     -0.1917016266E-01
          0                 4           1             2    2     9       0.1303252474E-02       2    2    9       0.7901389139E+00      0.8393342462E+00      0.1309830437E+02      0.1303252474E-02
          0                 5           1             2    2     9      -0.5170178212E-04       2    2    9      -0.3151840605E-01      0.3227154231E-01      0.8393342462E+00     -0.5170178212E-04

    ------------------------------------------------
       NWT REQUIRED            5 OUTER ITERATIONS 
       AND A TOTAL OF          8 INNER ITERATIONS.
    ------------------------------------------------

 NO OUTPUT CONTROL FOR STRESS PERIOD    1   TIME STEP    3
 
 SOLVING FOR HEAD 
                                                   Max.-Head-Change                        Max.-Flux-Residual
  Residual-Control   Outer-Iter.   Inner-Iter.     Column Row Layer    Max.-Head-Change    Column Row Layer    Max.-Flux-Residual            L2-New               L2-Old           Solver-Max-Delh
          0                 1           2             1    1     8       0.1811974277E+01       1    1    8       0.3528991635E+03      0.7227398230E+03      0.3227154231E-01      0.1811974277E+01
          0                 2           2             1    1     7      -0.8019101186E+00       1    1    7      -0.2811911636E+03      0.2976635224E+03      0.7227398230E+03     -0.8019101186E+00
          0                 3           2             1    1     7       0.3951207699E-01       1    1    7       0.1475680536E+02      0.1956878700E+02      0.2976635224E+03      0.3951207699E-01
          0                 4           2             1    1     7      -0.1619274808E-02       1    1    7      -0.6293744416E+00      0.1075224396E+01      0.1956878700E+02     -0.1619274808E-02
          0                 5           1             1    2     7      -0.4545093758E-04       2    1    7      -0.2276471713E-01      0.3619888556E-01      0.1075224396E+01     -0.4545093758E-04

    ------------------------------------------------
       NWT REQUIRED            5 OUTER ITERATIONS 
       AND A TOTAL OF          9 INNER ITERATIONS.
    ------------------------------------------------

 NO OUTPUT CONTROL FOR STRESS PERIOD    1   TIME STEP    4
 
 SOLVING FOR HEAD 
                                                   Max.-Head-Change                        Max.-Flux-Residual
  Residual-Control   Outer-Iter.   Inner-Iter.     Column Row Layer    Max.-Head-Change    Column Row Layer    Max.-Flux-Residual            L2-New               L2-Old           Solver-Max-Delh
          0                 1           2             1    2     7       0.1139379279E+01       2    1    8       0.2165888895E+03      0.6177215264E+03      0.3619888556E-01      0.1139379279E+01
          0                 2           2             1    2     7      -0.6264749547E+00       1    2    7      -0.2133133430E+03      0.3601188716E+03      0.6177215264E+03     -0.6264749547E+00
          0                 3           2             1    2     8       0.1920981185E+00       1    2    8       0.8840391681E+02      0.1288026707E+03      0.3601188716E+03      0.1920981185E+00
          0                 4           2             2    1     8      -0.8190166591E-02       1    1   10      -0.4239439349E+01      0.7890860568E+01      0.1288026707E+03     -0.8190166591E-02
          0                 5           1             1    1    10       0.5537891586E-03       1    1   10       0.4678664797E+00      0.6142921760E+00      0.7890860568E+01      0.5537891586E-03
          0                 6           1             1    1    10      -0.2196426399E-04       1    1   10      -0.2114750368E-01      0.2766648124E-01      0.6142921760E+00     -0.2196426399E-04

    ------------------------------------------------
       NWT REQUIRED            6 OUTER ITERATIONS 
       AND A TOTAL OF         10 INNER ITERATIONS.
    ------------------------------------------------

 NO OUTPUT CONTROL FOR STRESS PERIOD    1   TIME STEP    5
 
 SOLVING FOR HEAD 
                                                   Max.-Head-Change                        Max.-Flux-Residual
  Residual-Control   Outer-Iter.   Inner-Iter.     Column Row Layer    Max.-Head-Change    Column Row Layer    Max.-Flux-Residual            L2-New               L2-Old           Solver-Max-Delh
          0                 1           2             1    1     7       0.9940471936E+00       1    1    7       0.2040794673E+03      0.5366377747E+03      0.2766648124E-01      0.9940471936E+00
          0                 2           2             1    3     9       0.2816974167E+00       2    2    7      -0.1059210508E+03      0.2168312902E+03      0.5366377747E+03      0.2816974167E+00
          0                 3           2             1    3     9      -0.2830274225E-01       1    3    9      -0.1012730834E+02      0.2001519096E+02      0.2168312902E+03     -0.2830274225E-01
          0                 4           2             1    3     9       0.1910543253E-02       1    3    9       0.7068231823E+00      0.1312252313E+01      0.2001519096E+02      0.1910543253E-02
          0                 5           1             1    3     9      -0.7563343899E-04       1    3    9      -0.2883032804E-01      0.5193388299E-01      0.1312252313E+01     -0.7563343899E-04

    ------------------------------------------------
       NWT REQUIRED            5 OUTER ITERATIONS 
       AND A TOTAL OF          9 INNER ITERATIONS.
    ------------------------------------------------

 NO OUTPUT CONTROL FOR STRESS PERIOD    1   TIME STEP    6
 
 SOLVING FOR HEAD 
                                                   Max.-Head-Change                        Max.-Flux-Residual
  Residual-Control   Outer-Iter.   Inner-Iter.     Column Row Layer    Max.-Head-Change    Column Row Layer    Max.-Flux-Residual            L2-New               L2-Old           Solver-Max-Delh
          0                 1           2             1    1     7       0.9169033422E+00       1    1    7       0.1660490607E+03      0.4963032257E+03      0.5193388299E-01      0.9169033422E+00
          0                 2           2             2    3     9       0.1769755231E+00       2    3    9       0.8177920081E+02      0.1279175501E+03      0.4963032257E+03      0.1769755231E+00
          0                 3           2             2    3     9      -0.1738989532E-01       2    3    9      -0.8139513199E+01      0.1224168105E+02      0.1279175501E+03     -0.1738989532E-01
          0                 4           2             3    2     9       0.1179258085E-02       2    3    9       0.5669094040E+00      0.8300859267E+00      0.1224168105E+02      0.1179258085E-02
          0                 5           1             3    2     9      -0.4673638993E-04       2    3    9      -0.2307704437E-01      0.3335042109E-01      0.8300859267E+00     -0.4673638993E-04

    ------------------------------------------------
       NWT REQUIRED            5 OUTER ITERATIONS 
       AND A TOTAL OF          9 INNER ITERATIONS.
    ------------------------------------------------

 NO OUTPUT CONTROL FOR STRESS PERIOD    1   TIME STEP    7
 
 SOLVING FOR HEAD 
                                                   Max.-Head-Change                        Max.-Flux-Residual
  Residual-Control   Outer-Iter.   Inner-Iter.     Column Row Layer    Max.-Head-Change    Column Row Layer    Max.-Flux-Residual            L2-New               L2-Old           Solver-Max-Delh
          0                 1           2             1    1     7       0.7774431317E+00       1    1    7       0.1404189723E+03      0.4759066363E+03      0.3335042109E-01      0.7774431317E+00
          0                 2           2             1    1     6      -0.3354338885E+00       1    1    6      -0.1233836380E+03      0.1671020912E+03      0.4759066363E+03     -0.3354338885E+00
          0                 3           2             1    1     6       0.2041322105E-01       2    2    8      -0.9645604748E+01      0.1298072853E+02      0.1671020912E+03      0.2041322105E-01
          0                 4           1             2    2     8       0.1015575748E-02       2    2    8       0.6628622933E+00      0.7602216289E+00      0.1298072853E+02      0.1015575748E-02
          0                 5           1             2    2     8      -0.4031800727E-04       2    2    8      -0.2663318415E-01      0.2752878064E-01      0.7602216289E+00     -0.4031800727E-04

    ------------------------------------------------
       NWT REQUIRED            5 OUTER ITERATIONS 
       AND A TOTAL OF          8 INNER ITERATIONS.
    ------------------------------------------------

 NO OUTPUT CONTROL FOR STRESS PERIOD    1   TIME STEP    8
 
 SOLVING FOR HEAD 
                                                   Max.-Head-Change                        Max.-Flux-Residual
  Residual-Control   Outer-Iter.   Inner-Iter.     Column Row Layer    Max.-Head-Change    Column Row Layer    Max.-Flux-Residual            L2-New               L2-Old           Solver-Max-Delh
          0                 1           2             1    3     7       0.6879942526E+00       1    3    8       0.1124473936E+03      0.4469726999E+03      0.2752878064E-01      0.6879942526E+00
          0                 2           2             1    3     7      -0.6809995452E-01       1    3    8      -0.1164018306E+02      0.4571684243E+02      0.4469726999E+03     -0.6809995452E-01
          0                 3           2             3    3     1      -0.6622401840E-02       3    3    8      -0.3003618671E+01      0.4373043250E+01      0.4571684243E+02     -0.6622401840E-02
          0                 4           1             3    3     8       0.4467034381E-03       3    3    8       0.2072014848E+00      0.2509400516E+00      0.4373043250E+01      0.4467034381E-03
          0                 5           1             3    3     8      -0.1763313765E-04       3    3    8      -0.8345053218E-02      0.9030238069E-02      0.2509400516E+00     -0.1763313765E-04

    ------------------------------------------------
       NWT REQUIRED            5 OUTER ITERATIONS 
       AND A TOTAL OF          8 INNER ITERATIONS.
    ------------------------------------------------

 NO OUTPUT CONTROL FOR STRESS PERIOD    1   TIME STEP    9
 
 SOLVING FOR HEAD 
                                                   Max.-Head-Change                        Max.-Flux-Residual
  Residual-Control   Outer-Iter.   Inner-Iter.     Column Row Layer    Max.-Head-Change    Column Row Layer    Max.-Flux-Residual            L2-New               L2-Old           Solver-Max-Delh
          0                 1           2             1    3     7       0.6136994145E+00       1    3    8       0.9986399411E+02      0.4229711059E+03      0.9030238069E-02      0.6136994145E+00
          0                 2           2             1    1     7       0.1814624567E+00       3    3    8      -0.9535543239E+02      0.2137991500E+03      0.4229711059E+03      0.1814624567E+00
          0                 3           2             1    1     7      -0.1804128274E-01       1    1    7      -0.6929569558E+01      0.1561626858E+02      0.2137991500E+03     -0.1804128274E-01
          0                 4           1             1    1     7       0.1222045026E-02       1    1    7       0.4828898261E+00      0.7526812796E+00      0.1561626858E+02      0.1222045026E-02
          0                 5           1             1    1     7      -0.4847339497E-04       1    1    7      -0.1966550438E-01      0.2122636198E-01      0.7526812796E+00     -0.4847339497E-04

    ------------------------------------------------
       NWT REQUIRED            5 OUTER ITERATIONS 
       AND A TOTAL OF          8 INNER ITERATIONS.
    ------------------------------------------------

 OUTPUT CONTROL FOR STRESS PERIOD    1   TIME STEP   10
    SAVE BUDGET
    PRINT HEAD FOR ALL LAYERS
    PRINT BUDGET
    SAVE HEAD FOR ALL LAYERS
 UBDSV1 SAVING "         STORAGE" ON UNIT  32 AT TIME STEP 10, STRESS PERIOD 1
 UBDSV2 SAVING "   CONSTANT HEAD" ON UNIT  32 AT TIME STEP 10, STRESS PERIOD 1
 UBDSV1 SAVING "FLOW RIGHT FACE " ON UNIT  32 AT TIME STEP 10, STRESS PERIOD 1
 UBDSV1 SAVING "FLOW FRONT FACE " ON UNIT  32 AT TIME STEP 10, STRESS PERIOD 1
 UBDSV1 SAVING "FLOW LOWER FACE " ON UNIT  32 AT TIME STEP 10, STRESS PERIOD 1
 UBDSV3 SAVING "        RECHARGE" ON UNIT  32 AT TIME STEP 10, STRESS PERIOD 1
1
              HEAD IN LAYER 1 AT END OF TIME STEP 10 IN STRESS PERIOD 1
  ---------------------------------------------------------------------------

            1           2           3           4           5           6           7           8           9          10
           11          12          13          14          15          16          17          18          19          20
           21          22          23          24          25          26          27          28          29          30
           31          32          33          34          35          36          37          38          39          40
 ........................................................................................................................
   1   -99.90      -99.90      -99.90      -99.90      -99.90      -99.90      -99.90      -99.90      -99.90      -99.90    
       -99.90      -99.90      -99.90      -99.90      -99.90      -99.90      -99.90      -99.90      -99.90      -99.90    
       -99.90      -99.90      -99.90      -99.90      -99.90      -99.90      -99.90      -99.90      -99.90      -99.90    
       -99.90      -99.90      -99.90      -99.90      -99.90      -99.90      -99.90      -99.90      -99.90      -99.90    
   2   -99.90      -99.90      -99.90      -99.90      -99.90      -99.90      -99.90      -99.90      -99.90      -99.90    
       -99.90      -99.90      -99.90      -99.90      -99.90      -99.90      -99.90      -99.90      -99.90      -99.90    
       -99.90      -99.90      -99.90      -99.90      -99.90      -99.90      -99.90      -99.90      -99.90      -99.90    
       -99.90      -99.90      -99.90      -99.90      -99.90      -99.90      -99.90      -99.90      -99.90      -99.90    
   3   -99.90      -99.90      -99.90      -99.90      -99.90      -99.90      -99.90      -99.90      -99.90      -99.90    
       -99.90      -99.90      -99.90      -99.90      -99.90      -99.90      -99.90      -99.90      -99.90      -99.90    
       -99.90      -99.90      -99.90      -99.90      -99.90      -99.90      -99.90      -99.90      -99.90      -99.90    
       -99.90      -99.90      -99.90      -99.90      -99.90      -99.90      -99.90      -99.90      -99.90      -99.90    
   4   -99.90      -99.90      -99.90      -99.90      -99.90      -99.90      -99.90      -99.90      -99.90      -99.90    
       -99.90      -99.90      -99.90      -99.90      -99.90      -99.90      -99.90      -99.90      -99.90      -99.90    
       -99.90      -99.90      -99.90      -99.90      -99.90      -99.90      -99.90      -99.90      -99.90      -99.90    
       -99.90      -99.90      -99.90      -99.90      -99.90      -99.90      -99.90      -99.90      -99.90      -99.90    
   5   -99.90      -99.90      -99.90      -99.90      -99.90      -99.90      -99.90      -99.90      -99.90      -99.90    
       -99.90      -99.90      -99.90      -99.90      -99.90      -99.90      -99.90      -99.90      -99.90      -99.90    
       -99.90      -99.90      -99.90      -99.90      -99.90      -99.90      -99.90      -99.90      -99.90      -99.90    
       -99.90      -99.90      -99.90      -99.90      -99.90      -99.90      -99.90      -99.90      -99.90      -99.90    
   6   -99.90      -99.90      -99.90      -99.90      -99.90      -99.90      -99.90      -99.90      -99.90      -99.90    
       -99.90      -99.90      -99.90      -99.90      -99.90      -99.90      -99.90      -99.90      -99.90      -99.90    
       -99.90      -99.90      -99.90      -99.90      -99.90      -99.90      -99.90      -99.90      -99.90      -99.90    
       -99.90      -99.90      -99.90      -99.90      -99.90      -99.90      -99.90      -99.90      -99.90      -99.90    
   7   -99.90      -99.90      -99.90      -99.90      -99.90      -99.90      -99.90      -99.90      -99.90      -99.90    
       -99.90      -99.90      -99.90      -99.90      -99.90      -99.90      -99.90      -99.90      -99.90      -99.90    
       -99.90      -99.90      -99.90      -99.90      -99.90      -99.90      -99.90      -99.90      -99.90      -99.90    
       -99.90      -99.90      -99.90      -99.90      -99.90      -99.90      -99.90      -99.90      -99.90      -99.90    
   8   -99.90      -99.90      -99.90      -99.90      -99.90      -99.90      -99.90      -99.90      -99.90      -99.90    
       -99.90      -99.90      -99.90      -99.90      -99.90      -99.90      -99.90      -99.90      -99.90      -99.90    
       -99.90      -99.90      -99.90      -99.90      -99.90      -99.90      -99.90      -99.90      -99.90      -99.90    
       -99.90      -99.90      -99.90      -99.90      -99.90      -99.90      -99.90      -99.90      -99.90      -99.90    
   9   -99.90      -99.90      -99.90      -99.90      -99.90      -99.90      -99.90      -99.90      -99.90      -99.90    
       -99.90      -99.90      -99.90      -99.90      -99.90      -99.90      -99.90      -99.90      -99.90      -99.90    
       -99.90      -99.90      -99.90      -99.90      -99.90      -99.90      -99.90      -99.90      -99.90      -99.90    
       -99.90      -99.90      -99.90      -99.90      -99.90      -99.90      -99.90      -99.90      -99.90      -99.90    
  10   -99.90      -99.90      -99.90      -99.90      -99.90      -99.90      -99.90      -99.90      -99.90      -99.90    
       -99.90      -99.90      -99.90      -99.90      -99.90      -99.90      -99.90      -99.90      -99.90      -99.90    
       -99.90      -99.90      -99.90      -99.90      -99.90      -99.90      -99.90      -99.90      -99.90      -99.90    
       -99.90      -99.90      -99.90      -99.90      -99.90      -99.90      -99.90      -99.90      -99.90      -99.90    
  11   -99.90      -99.90      -99.90      -99.90      -99.90      -99.90      -99.90      -99.90      -99.90      -99.90    
       -99.90      -99.90      -99.90      -99.90      -99.90      -99.90      -99.90      -99.90      -99.90      -99.90    
       -99.90      -99.90      -99.90      -99.90      -99.90      -99.90      -99.90      -99.90      -99.90      -99.90    
       -99.90      -99.90      -99.90      -99.90      -99.90      -99.90      -99.90      -99.90      -99.90      -99.90    
  12   -99.90      -99.90      -99.90      -99.90      -99.90      -99.90      -99.90      -99.90      -99.90      -99.90    
       -99.90      -99.90      -99.90      -99.90      -99.90      -99.90      -99.90      -99.90      -99.90      -99.90    
       -99.90      -99.90      -99.90      -99.90      -99.90      -99.90      -99.90      -99.90      -99.90      -99.90    
       -99.90      -99.90      -99.90      -99.90      -99.90      -99.90      -99.90      -99.90      -99.90      -99.90    
  13   -99.90      -99.90      -99.90      -99.90      -99.90      -99.90      -99.90      -99.90      -99.90      -99.90    
       -99.90      -99.90      -99.90      -99.90      -99.90      -99.90      -99.90      -99.90      -99.90      -99.90    
       -99.90      -99.90      -99.90      -99.90      -99.90      -99.90      -99.90      -99.90      -99.90      -99.90    
       -99.90      -99.90      -99.90      -99.90      -99.90      -99.90      -99.90      -99.90      -99.90      -99.90    
  14   -99.90      -99.90      -99.90      -99.90      -99.90      -99.90      -99.90      -99.90      -99.90      -99.90    
       -99.90      -99.90      -99.90      -99.90      -99.90      -99.90      -99.90      -99.90      -99.90      -99.90    
       -99.90      -99.90      -99.90      -99.90      -99.90      -99.90      -99.90      -99.90      -99.90      -99.90    
       -99.90      -99.90      -99.90      -99.90      -99.90      -99.90      -99.90      -99.90      -99.90      -99.90    
  15   -99.90      -99.90      -99.90      -99.90      -99.90      -99.90      -99.90      -99.90      -99.90      -99.90    
       -99.90      -99.90      -99.90      -99.90      -99.90      -99.90      -99.90      -99.90      -99.90      -99.90    
       -99.90      -99.90      -99.90      -99.90      -99.90      -99.90      -99.90      -99.90      -99.90      -99.90    
       -99.90      -99.90      -99.90      -99.90      -99.90      -99.90      -99.90      -99.90      -99.90      -99.90    
  16   -99.90      -99.90      -99.90      -99.90      -99.90      -99.90      -99.90      -99.90      -99.90      -99.90    
       -99.90      -99.90      -99.90      -99.90      -99.90      -99.90      -99.90      -99.90      -99.90      -99.90    
       -99.90      -99.90      -99.90      -99.90      -99.90      -99.90      -99.90      -99.90      -99.90      -99.90    
       -99.90      -99.90      -99.90      -99.90      -99.90      -99.90      -99.90      -99.90      -99.90      -99.90    
  17   -99.90      -99.90      -99.90      -99.90      -99.90      -99.90      -99.90      -99.90      -99.90      -99.90    
       -99.90      -99.90      -99.90      -99.90      -99.90      -99.90      -99.90      -99.90      -99.90      -99.90    
       -99.90      -99.90      -99.90      -99.90      -99.90      -99.90      -99.90      -99.90      -99.90      -99.90    
       -99.90      -99.90      -99.90      -99.90      -99.90      -99.90      -99.90      -99.90      -99.90      -99.90    
  18   -99.90      -99.90      -99.90      -99.90      -99.90      -99.90      -99.90      -99.90      -99.90      -99.90    
       -99.90      -99.90      -99.90      -99.90      -99.90      -99.90      -99.90      -99.90      -99.90      -99.90    
       -99.90      -99.90      -99.90      -99.90      -99.90      -99.90      -99.90      -99.90      -99.90      -99.90    
       -99.90      -99.90      -99.90      -99.90      -99.90      -99.90      -99.90      -99.90      -99.90      -99.90    
  19   -99.90      -99.90      -99.90      -99.90      -99.90      -99.90      -99.90      -99.90      -99.90      -99.90    
       -99.90      -99.90      -99.90      -99.90      -99.90      -99.90      -99.90      -99.90      -99.90      -99.90    
       -99.90      -99.90      -99.90      -99.90      -99.90      -99.90      -99.90      -99.90      -99.90      -99.90    
       -99.90      -99.90      -99.90      -99.90      -99.90      -99.90      -99.90      -99.90      -99.90      -99.90    
  20   -99.90      -99.90      -99.90      -99.90      -99.90      -99.90      -99.90      -99.90      -99.90      -99.90    
       -99.90      -99.90      -99.90      -99.90      -99.90      -99.90      -99.90      -99.90      -99.90      -99.90    
       -99.90      -99.90      -99.90      -99.90      -99.90      -99.90      -99.90      -99.90      -99.90      -99.90    
       -99.90      -99.90      -99.90      -99.90      -99.90      -99.90      -99.90      -99.90      -99.90      -99.90    
  21   -99.90      -99.90      -99.90      -99.90      -99.90      -99.90      -99.90      -99.90      -99.90      -99.90    
       -99.90      -99.90      -99.90      -99.90      -99.90      -99.90      -99.90      -99.90      -99.90      -99.90    
       -99.90      -99.90      -99.90      -99.90      -99.90      -99.90      -99.90      -99.90      -99.90      -99.90    
       -99.90      -99.90      -99.90      -99.90      -99.90      -99.90      -99.90      -99.90      -99.90      -99.90    
  22   -99.90      -99.90      -99.90      -99.90      -99.90      -99.90      -99.90      -99.90      -99.90      -99.90    
       -99.90      -99.90      -99.90      -99.90      -99.90      -99.90      -99.90      -99.90      -99.90      -99.90    
       -99.90      -99.90      -99.90      -99.90      -99.90      -99.90      -99.90      -99.90      -99.90      -99.90    
       -99.90      -99.90      -99.90      -99.90      -99.90      -99.90      -99.90      -99.90      -99.90      -99.90    
  23   -99.90      -99.90      -99.90      -99.90      -99.90      -99.90      -99.90      -99.90      -99.90      -99.90    
       -99.90      -99.90      -99.90      -99.90      -99.90      -99.90      -99.90      -99.90      -99.90      -99.90    
       -99.90      -99.90      -99.90      -99.90      -99.90      -99.90      -99.90      -99.90      -99.90      -99.90    
       -99.90      -99.90      -99.90      -99.90      -99.90      -99.90      -99.90      -99.90      -99.90      -99.90    
  24   -99.90      -99.90      -99.90      -99.90      -99.90      -99.90      -99.90      -99.90      -99.90      -99.90    
       -99.90      -99.90      -99.90      -99.90      -99.90      -99.90      -99.90      -99.90      -99.90      -99.90    
       -99.90      -99.90      -99.90      -99.90      -99.90      -99.90      -99.90      -99.90      -99.90      -99.90    
       -99.90      -99.90      -99.90      -99.90      -99.90      -99.90      -99.90      -99.90      -99.90      -99.90    
  25   -99.90      -99.90      -99.90      -99.90      -99.90      -99.90      -99.90      -99.90      -99.90      -99.90    
       -99.90      -99.90      -99.90      -99.90      -99.90      -99.90      -99.90      -99.90      -99.90      -99.90    
       -99.90      -99.90      -99.90      -99.90      -99.90      -99.90      -99.90      -99.90      -99.90      -99.90    
       -99.90      -99.90      -99.90      -99.90      -99.90      -99.90      -99.90      -99.90      -99.90      -99.90    
  26   -99.90      -99.90      -99.90      -99.90      -99.90      -99.90      -99.90      -99.90      -99.90      -99.90    
       -99.90      -99.90      -99.90      -99.90      -99.90      -99.90      -99.90      -99.90      -99.90      -99.90    
       -99.90      -99.90      -99.90      -99.90      -99.90      -99.90      -99.90      -99.90      -99.90      -99.90    
       -99.90      -99.90      -99.90      -99.90      -99.90      -99.90      -99.90      -99.90      -99.90      -99.90    
  27   -99.90      -99.90      -99.90      -99.90      -99.90      -99.90      -99.90      -99.90      -99.90      -99.90    
       -99.90      -99.90      -99.90      -99.90      -99.90      -99.90      -99.90      -99.90      -99.90      -99.90    
       -99.90      -99.90      -99.90      -99.90      -99.90      -99.90      -99.90      -99.90      -99.90      -99.90    
       -99.90      -99.90      -99.90      -99.90      -99.90      -99.90      -99.90      -99.90      -99.90      -99.90    
  28   -99.90      -99.90      -99.90      -99.90      -99.90      -99.90      -99.90      -99.90      -99.90      -99.90    
       -99.90      -99.90      -99.90      -99.90      -99.90      -99.90      -99.90      -99.90      -99.90      -99.90    
       -99.90      -99.90      -99.90      -99.90      -99.90      -99.90      -99.90      -99.90      -99.90      -99.90    
       -99.90      -99.90      -99.90      -99.90      -99.90      -99.90      -99.90      -99.90      -99.90      -99.90    
  29   -99.90      -99.90      -99.90      -99.90      -99.90      -99.90      -99.90      -99.90      -99.90      -99.90    
       -99.90      -99.90      -99.90      -99.90      -99.90      -99.90      -99.90      -99.90      -99.90      -99.90    
       -99.90      -99.90      -99.90      -99.90      -99.90      -99.90      -99.90      -99.90      -99.90      -99.90    
       -99.90      -99.90      -99.90      -99.90      -99.90      -99.90      -99.90      -99.90      -99.90      -99.90    
  30   -99.90      -99.90      -99.90      -99.90      -99.90      -99.90      -99.90      -99.90      -99.90      -99.90    
       -99.90      -99.90      -99.90      -99.90      -99.90      -99.90      -99.90      -99.90      -99.90      -99.90    
       -99.90      -99.90      -99.90      -99.90      -99.90      -99.90      -99.90      -99.90      -99.90      -99.90    
       -99.90      -99.90      -99.90      -99.90      -99.90      -99.90      -99.90      -99.90      -99.90      -99.90    
  31   -99.90      -99.90      -99.90      -99.90      -99.90      -99.90      -99.90      -99.90      -99.90      -99.90    
       -99.90      -99.90      -99.90      -99.90      -99.90      -99.90      -99.90      -99.90      -99.90      -99.90    
       -99.90      -99.90      -99.90      -99.90      -99.90      -99.90      -99.90      -99.90      -99.90      -99.90    
       -99.90      -99.90      -99.90      -99.90      -99.90      -99.90      -99.90      -99.90      -99.90      -99.90    
  32   -99.90      -99.90      -99.90      -99.90      -99.90      -99.90      -99.90      -99.90      -99.90      -99.90    
       -99.90      -99.90      -99.90      -99.90      -99.90      -99.90      -99.90      -99.90      -99.90      -99.90    
       -99.90      -99.90      -99.90      -99.90      -99.90      -99.90      -99.90      -99.90      -99.90      -99.90    
       -99.90      -99.90      -99.90      -99.90      -99.90      -99.90      -99.90      -99.90      -99.90      -99.90    
  33   -99.90      -99.90      -99.90      -99.90      -99.90      -99.90      -99.90      -99.90      -99.90      -99.90    
       -99.90      -99.90      -99.90      -99.90      -99.90      -99.90      -99.90      -99.90      -99.90      -99.90    
       -99.90      -99.90      -99.90      -99.90      -99.90      -99.90      -99.90      -99.90      -99.90      -99.90    
       -99.90      -99.90      -99.90      -99.90      -99.90      -99.90      -99.90      -99.90      -99.90      -99.90    
  34   -99.90      -99.90      -99.90      -99.90      -99.90      -99.90      -99.90      -99.90      -99.90      -99.90    
       -99.90      -99.90      -99.90      -99.90      -99.90      -99.90      -99.90      -99.90      -99.90      -99.90    
       -99.90      -99.90      -99.90      -99.90      -99.90      -99.90      -99.90      -99.90      -99.90      -99.90    
       -99.90      -99.90      -99.90      -99.90      -99.90      -99.90      -99.90      -99.90      -99.90      -99.90    
  35   -99.90      -99.90      -99.90      -99.90      -99.90      -99.90      -99.90      -99.90      -99.90      -99.90    
       -99.90      -99.90      -99.90      -99.90      -99.90      -99.90      -99.90      -99.90      -99.90      -99.90    
       -99.90      -99.90      -99.90      -99.90      -99.90      -99.90      -99.90      -99.90      -99.90      -99.90    
       -99.90      -99.90      -99.90      -99.90      -99.90      -99.90      -99.90      -99.90      -99.90      -99.90    
  36   -99.90      -99.90      -99.90      -99.90      -99.90      -99.90      -99.90      -99.90      -99.90      -99.90    
       -99.90      -99.90      -99.90      -99.90      -99.90      -99.90      -99.90      -99.90      -99.90      -99.90    
       -99.90      -99.90      -99.90      -99.90      -99.90      -99.90      -99.90      -99.90      -99.90      -99.90    
       -99.90      -99.90      -99.90      -99.90      -99.90      -99.90      -99.90      -99.90      -99.90      -99.90    
  37   -99.90      -99.90      -99.90      -99.90      -99.90      -99.90      -99.90      -99.90      -99.90      -99.90    
       -99.90      -99.90      -99.90      -99.90      -99.90      -99.90      -99.90      -99.90      -99.90      -99.90    
       -99.90      -99.90      -99.90      -99.90      -99.90      -99.90      -99.90      -99.90      -99.90      -99.90    
       -99.90      -99.90      -99.90      -99.90      -99.90      -99.90      -99.90      -99.90      -99.90      -99.90    
  38   -99.90      -99.90      -99.90      -99.90      -99.90      -99.90      -99.90      -99.90      -99.90      -99.90    
       -99.90      -99.90      -99.90      -99.90      -99.90      -99.90      -99.90      -99.90      -99.90      -99.90    
       -99.90      -99.90      -99.90      -99.90      -99.90      -99.90      -99.90      -99.90      -99.90      -99.90    
       -99.90      -99.90      -99.90      -99.90      -99.90      -99.90      -99.90      -99.90      -99.90      -99.90    
  39   -99.90      -99.90      -99.90      -99.90      -99.90      -99.90      -99.90      -99.90      -99.90      -99.90    
       -99.90      -99.90      -99.90      -99.90      -99.90      -99.90      -99.90      -99.90      -99.90      -99.90    
       -99.90      -99.90      -99.90      -99.90      -99.90      -99.90      -99.90      -99.90      -99.90      -99.90    
       -99.90      -99.90      -99.90      -99.90      -99.90      -99.90      -99.90      -99.90      -99.90      -99.90    
  40   -99.90      -99.90      -99.90      -99.90      -99.90      -99.90      -99.90      -99.90      -99.90      -99.90    
       -99.90      -99.90      -99.90      -99.90      -99.90      -99.90      -99.90      -99.90      -99.90      -99.90    
       -99.90      -99.90      -99.90      -99.90      -99.90      -99.90      -99.90      -99.90      -99.90      -99.90    
       -99.90      -99.90      -99.90      -99.90      -99.90      -99.90      -99.90      -99.90      -99.90      -99.90    
1
              HEAD IN LAYER 2 AT END OF TIME STEP 10 IN STRESS PERIOD 1
  ---------------------------------------------------------------------------

            1           2           3           4           5           6           7           8           9          10
           11          12          13          14          15          16          17          18          19          20
           21          22          23          24          25          26          27          28          29          30
           31          32          33          34          35          36          37          38          39          40
 ........................................................................................................................
   1   -99.90      -99.90      -99.90      -99.90      -99.90      -99.90      -99.90      -99.90      -99.90      -99.90    
       -99.90      -99.90      -99.90      -99.90      -99.90      -99.90      -99.90      -99.90      -99.90      -99.90    
       -99.90      -99.90      -99.90      -99.90      -99.90      -99.90      -99.90      -99.90      -99.90      -99.90    
       -99.90      -99.90      -99.90      -99.90      -99.90      -99.90      -99.90      -99.90      -99.90      -99.90    
   2   -99.90      -99.90      -99.90      -99.90      -99.90      -99.90      -99.90      -99.90      -99.90      -99.90    
       -99.90      -99.90      -99.90      -99.90      -99.90      -99.90      -99.90      -99.90      -99.90      -99.90    
       -99.90      -99.90      -99.90      -99.90      -99.90      -99.90      -99.90      -99.90      -99.90      -99.90    
       -99.90      -99.90      -99.90      -99.90      -99.90      -99.90      -99.90      -99.90      -99.90      -99.90    
   3   -99.90      -99.90      -99.90      -99.90      -99.90      -99.90      -99.90      -99.90      -99.90      -99.90    
       -99.90      -99.90      -99.90      -99.90      -99.90      -99.90      -99.90      -99.90      -99.90      -99.90    
       -99.90      -99.90      -99.90      -99.90      -99.90      -99.90      -99.90      -99.90      -99.90      -99.90    
       -99.90      -99.90      -99.90      -99.90      -99.90      -99.90      -99.90      -99.90      -99.90      -99.90    
   4   -99.90      -99.90      -99.90      -99.90      -99.90      -99.90      -99.90      -99.90      -99.90      -99.90    
       -99.90      -99.90      -99.90      -99.90      -99.90      -99.90      -99.90      -99.90      -99.90      -99.90    
       -99.90      -99.90      -99.90      -99.90      -99.90      -99.90      -99.90      -99.90      -99.90      -99.90    
       -99.90      -99.90      -99.90      -99.90      -99.90      -99.90      -99.90      -99.90      -99.90      -99.90    
   5   -99.90      -99.90      -99.90      -99.90      -99.90      -99.90      -99.90      -99.90      -99.90      -99.90    
       -99.90      -99.90      -99.90      -99.90      -99.90      -99.90      -99.90      -99.90      -99.90      -99.90    
       -99.90      -99.90      -99.90      -99.90      -99.90      -99.90      -99.90      -99.90      -99.90      -99.90    
       -99.90      -99.90      -99.90      -99.90      -99.90      -99.90      -99.90      -99.90      -99.90      -99.90    
   6   -99.90      -99.90      -99.90      -99.90      -99.90      -99.90      -99.90      -99.90      -99.90      -99.90    
       -99.90      -99.90      -99.90      -99.90      -99.90      -99.90      -99.90      -99.90      -99.90      -99.90    
       -99.90      -99.90      -99.90      -99.90      -99.90      -99.90      -99.90      -99.90      -99.90      -99.90    
       -99.90      -99.90      -99.90      -99.90      -99.90      -99.90      -99.90      -99.90      -99.90      -99.90    
   7   -99.90      -99.90      -99.90      -99.90      -99.90      -99.90      -99.90      -99.90      -99.90      -99.90    
       -99.90      -99.90      -99.90      -99.90      -99.90      -99.90      -99.90      -99.90      -99.90      -99.90    
       -99.90      -99.90      -99.90      -99.90      -99.90      -99.90      -99.90      -99.90      -99.90      -99.90    
       -99.90      -99.90      -99.90      -99.90      -99.90      -99.90      -99.90      -99.90      -99.90      -99.90    
   8   -99.90      -99.90      -99.90      -99.90      -99.90      -99.90      -99.90      -99.90      -99.90      -99.90    
       -99.90      -99.90      -99.90      -99.90      -99.90      -99.90      -99.90      -99.90      -99.90      -99.90    
       -99.90      -99.90      -99.90      -99.90      -99.90      -99.90      -99.90      -99.90      -99.90      -99.90    
       -99.90      -99.90      -99.90      -99.90      -99.90      -99.90      -99.90      -99.90      -99.90      -99.90    
   9   -99.90      -99.90      -99.90      -99.90      -99.90      -99.90      -99.90      -99.90      -99.90      -99.90    
       -99.90      -99.90      -99.90      -99.90      -99.90      -99.90      -99.90      -99.90      -99.90      -99.90    
       -99.90      -99.90      -99.90      -99.90      -99.90      -99.90      -99.90      -99.90      -99.90      -99.90    
       -99.90      -99.90      -99.90      -99.90      -99.90      -99.90      -99.90      -99.90      -99.90      -99.90    
  10   -99.90      -99.90      -99.90      -99.90      -99.90      -99.90      -99.90      -99.90      -99.90      -99.90    
       -99.90      -99.90      -99.90      -99.90      -99.90      -99.90      -99.90      -99.90      -99.90      -99.90    
       -99.90      -99.90      -99.90      -99.90      -99.90      -99.90      -99.90      -99.90      -99.90      -99.90    
       -99.90      -99.90      -99.90      -99.90      -99.90      -99.90      -99.90      -99.90      -99.90      -99.90    
  11   -99.90      -99.90      -99.90      -99.90      -99.90      -99.90      -99.90      -99.90      -99.90      -99.90    
       -99.90      -99.90      -99.90      -99.90      -99.90      -99.90      -99.90      -99.90      -99.90      -99.90    
       -99.90      -99.90      -99.90      -99.90      -99.90      -99.90      -99.90      -99.90      -99.90      -99.90    
       -99.90      -99.90      -99.90      -99.90      -99.90      -99.90      -99.90      -99.90      -99.90      -99.90    
  12   -99.90      -99.90      -99.90      -99.90      -99.90      -99.90      -99.90      -99.90      -99.90      -99.90    
       -99.90      -99.90      -99.90      -99.90      -99.90      -99.90      -99.90      -99.90      -99.90      -99.90    
       -99.90      -99.90      -99.90      -99.90      -99.90      -99.90      -99.90      -99.90      -99.90      -99.90    
       -99.90      -99.90      -99.90      -99.90      -99.90      -99.90      -99.90      -99.90      -99.90      -99.90    
  13   -99.90      -99.90      -99.90      -99.90      -99.90      -99.90      -99.90      -99.90      -99.90      -99.90    
       -99.90      -99.90      -99.90      -99.90      -99.90      -99.90      -99.90      -99.90      -99.90      -99.90    
       -99.90      -99.90      -99.90      -99.90      -99.90      -99.90      -99.90      -99.90      -99.90      -99.90    
       -99.90      -99.90      -99.90      -99.90      -99.90      -99.90      -99.90      -99.90      -99.90      -99.90    
  14   -99.90      -99.90      -99.90      -99.90      -99.90      -99.90      -99.90      -99.90      -99.90      -99.90    
       -99.90      -99.90      -99.90      -99.90      -99.90      -99.90      -99.90      -99.90      -99.90      -99.90    
       -99.90      -99.90      -99.90      -99.90      -99.90      -99.90      -99.90      -99.90      -99.90      -99.90    
       -99.90      -99.90      -99.90      -99.90      -99.90      -99.90      -99.90      -99.90      -99.90      -99.90    
  15   -99.90      -99.90      -99.90      -99.90      -99.90      -99.90      -99.90      -99.90      -99.90      -99.90    
       -99.90      -99.90      -99.90      -99.90      -99.90      -99.90      -99.90      -99.90      -99.90      -99.90    
       -99.90      -99.90      -99.90      -99.90      -99.90      -99.90      -99.90      -99.90      -99.90      -99.90    
       -99.90      -99.90      -99.90      -99.90      -99.90      -99.90      -99.90      -99.90      -99.90      -99.90    
  16   -99.90      -99.90      -99.90      -99.90      -99.90      -99.90      -99.90      -99.90      -99.90      -99.90    
       -99.90      -99.90      -99.90      -99.90      -99.90      -99.90      -99.90      -99.90      -99.90      -99.90    
       -99.90      -99.90      -99.90      -99.90      -99.90      -99.90      -99.90      -99.90      -99.90      -99.90    
       -99.90      -99.90      -99.90      -99.90      -99.90      -99.90      -99.90      -99.90      -99.90      -99.90    
  17   -99.90      -99.90      -99.90      -99.90      -99.90      -99.90      -99.90      -99.90      -99.90      -99.90    
       -99.90      -99.90      -99.90      -99.90      -99.90      -99.90      -99.90      -99.90      -99.90      -99.90    
       -99.90      -99.90      -99.90      -99.90      -99.90      -99.90      -99.90      -99.90      -99.90      -99.90    
       -99.90      -99.90      -99.90      -99.90      -99.90      -99.90      -99.90      -99.90      -99.90      -99.90    
  18   -99.90      -99.90      -99.90      -99.90      -99.90      -99.90      -99.90      -99.90      -99.90      -99.90    
       -99.90      -99.90      -99.90      -99.90      -99.90      -99.90      -99.90      -99.90      -99.90      -99.90    
       -99.90      -99.90      -99.90      -99.90      -99.90      -99.90      -99.90      -99.90      -99.90      -99.90    
       -99.90      -99.90      -99.90      -99.90      -99.90      -99.90      -99.90      -99.90      -99.90      -99.90    
  19   -99.90      -99.90      -99.90      -99.90      -99.90      -99.90      -99.90      -99.90      -99.90      -99.90    
       -99.90      -99.90      -99.90      -99.90      -99.90      -99.90      -99.90      -99.90      -99.90      -99.90    
       -99.90      -99.90      -99.90      -99.90      -99.90      -99.90      -99.90      -99.90      -99.90      -99.90    
       -99.90      -99.90      -99.90      -99.90      -99.90      -99.90      -99.90      -99.90      -99.90      -99.90    
  20   -99.90      -99.90      -99.90      -99.90      -99.90      -99.90      -99.90      -99.90      -99.90      -99.90    
       -99.90      -99.90      -99.90      -99.90      -99.90      -99.90      -99.90      -99.90      -99.90      -99.90    
       -99.90      -99.90      -99.90      -99.90      -99.90      -99.90      -99.90      -99.90      -99.90      -99.90    
       -99.90      -99.90      -99.90      -99.90      -99.90      -99.90      -99.90      -99.90      -99.90      -99.90    
  21   -99.90      -99.90      -99.90      -99.90      -99.90      -99.90      -99.90      -99.90      -99.90      -99.90    
       -99.90      -99.90      -99.90      -99.90      -99.90      -99.90      -99.90      -99.90      -99.90      -99.90    
       -99.90      -99.90      -99.90      -99.90      -99.90      -99.90      -99.90      -99.90      -99.90      -99.90    
       -99.90      -99.90      -99.90      -99.90      -99.90      -99.90      -99.90      -99.90      -99.90      -99.90    
  22   -99.90      -99.90      -99.90      -99.90      -99.90      -99.90      -99.90      -99.90      -99.90      -99.90    
       -99.90      -99.90      -99.90      -99.90      -99.90      -99.90      -99.90      -99.90      -99.90      -99.90    
       -99.90      -99.90      -99.90      -99.90      -99.90      -99.90      -99.90      -99.90      -99.90      -99.90    
       -99.90      -99.90      -99.90      -99.90      -99.90      -99.90      -99.90      -99.90      -99.90      -99.90    
  23   -99.90      -99.90      -99.90      -99.90      -99.90      -99.90      -99.90      -99.90      -99.90      -99.90    
       -99.90      -99.90      -99.90      -99.90      -99.90      -99.90      -99.90      -99.90      -99.90      -99.90    
       -99.90      -99.90      -99.90      -99.90      -99.90      -99.90      -99.90      -99.90      -99.90      -99.90    
       -99.90      -99.90      -99.90      -99.90      -99.90      -99.90      -99.90      -99.90      -99.90      -99.90    
  24   -99.90      -99.90      -99.90      -99.90      -99.90      -99.90      -99.90      -99.90      -99.90      -99.90    
       -99.90      -99.90      -99.90      -99.90      -99.90      -99.90      -99.90      -99.90      -99.90      -99.90    
       -99.90      -99.90      -99.90      -99.90      -99.90      -99.90      -99.90      -99.90      -99.90      -99.90    
       -99.90      -99.90      -99.90      -99.90      -99.90      -99.90      -99.90      -99.90      -99.90      -99.90    
  25   -99.90      -99.90      -99.90      -99.90      -99.90      -99.90      -99.90      -99.90      -99.90      -99.90    
       -99.90      -99.90      -99.90      -99.90      -99.90      -99.90      -99.90      -99.90      -99.90      -99.90    
       -99.90      -99.90      -99.90      -99.90      -99.90      -99.90      -99.90      -99.90      -99.90      -99.90    
       -99.90      -99.90      -99.90      -99.90      -99.90      -99.90      -99.90      -99.90      -99.90      -99.90    
  26   -99.90      -99.90      -99.90      -99.90      -99.90      -99.90      -99.90      -99.90      -99.90      -99.90    
       -99.90      -99.90      -99.90      -99.90      -99.90      -99.90      -99.90      -99.90      -99.90      -99.90    
       -99.90      -99.90      -99.90      -99.90      -99.90      -99.90      -99.90      -99.90      -99.90      -99.90    
       -99.90      -99.90      -99.90      -99.90      -99.90      -99.90      -99.90      -99.90      -99.90      -99.90    
  27   -99.90      -99.90      -99.90      -99.90      -99.90      -99.90      -99.90      -99.90      -99.90      -99.90    
       -99.90      -99.90      -99.90      -99.90      -99.90      -99.90      -99.90      -99.90      -99.90      -99.90    
       -99.90      -99.90      -99.90      -99.90      -99.90      -99.90      -99.90      -99.90      -99.90      -99.90    
       -99.90      -99.90      -99.90      -99.90      -99.90      -99.90      -99.90      -99.90      -99.90      -99.90    
  28   -99.90      -99.90      -99.90      -99.90      -99.90      -99.90      -99.90      -99.90      -99.90      -99.90    
       -99.90      -99.90      -99.90      -99.90      -99.90      -99.90      -99.90      -99.90      -99.90      -99.90    
       -99.90      -99.90      -99.90      -99.90      -99.90      -99.90      -99.90      -99.90      -99.90      -99.90    
       -99.90      -99.90      -99.90      -99.90      -99.90      -99.90      -99.90      -99.90      -99.90      -99.90    
  29   -99.90      -99.90      -99.90      -99.90      -99.90      -99.90      -99.90      -99.90      -99.90      -99.90    
       -99.90      -99.90      -99.90      -99.90      -99.90      -99.90      -99.90      -99.90      -99.90      -99.90    
       -99.90      -99.90      -99.90      -99.90      -99.90      -99.90      -99.90      -99.90      -99.90      -99.90    
       -99.90      -99.90      -99.90      -99.90      -99.90      -99.90      -99.90      -99.90      -99.90      -99.90    
  30   -99.90      -99.90      -99.90      -99.90      -99.90      -99.90      -99.90      -99.90      -99.90      -99.90    
       -99.90      -99.90      -99.90      -99.90      -99.90      -99.90      -99.90      -99.90      -99.90      -99.90    
       -99.90      -99.90      -99.90      -99.90      -99.90      -99.90      -99.90      -99.90      -99.90      -99.90    
       -99.90      -99.90      -99.90      -99.90      -99.90      -99.90      -99.90      -99.90      -99.90      -99.90    
  31   -99.90      -99.90      -99.90      -99.90      -99.90      -99.90      -99.90      -99.90      -99.90      -99.90    
       -99.90      -99.90      -99.90      -99.90      -99.90      -99.90      -99.90      -99.90      -99.90      -99.90    
       -99.90      -99.90      -99.90      -99.90      -99.90      -99.90      -99.90      -99.90      -99.90      -99.90    
       -99.90      -99.90      -99.90      -99.90      -99.90      -99.90      -99.90      -99.90      -99.90      -99.90    
  32   -99.90      -99.90      -99.90      -99.90      -99.90      -99.90      -99.90      -99.90      -99.90      -99.90    
       -99.90      -99.90      -99.90      -99.90      -99.90      -99.90      -99.90      -99.90      -99.90      -99.90    
       -99.90      -99.90      -99.90      -99.90      -99.90      -99.90      -99.90      -99.90      -99.90      -99.90    
       -99.90      -99.90      -99.90      -99.90      -99.90      -99.90      -99.90      -99.90      -99.90      -99.90    
  33   -99.90      -99.90      -99.90      -99.90      -99.90      -99.90      -99.90      -99.90      -99.90      -99.90    
       -99.90      -99.90      -99.90      -99.90      -99.90      -99.90      -99.90      -99.90      -99.90      -99.90    
       -99.90      -99.90      -99.90      -99.90      -99.90      -99.90      -99.90      -99.90      -99.90      -99.90    
       -99.90      -99.90      -99.90      -99.90      -99.90      -99.90      -99.90      -99.90      -99.90      -99.90    
  34   -99.90      -99.90      -99.90      -99.90      -99.90      -99.90      -99.90      -99.90      -99.90      -99.90    
       -99.90      -99.90      -99.90      -99.90      -99.90      -99.90      -99.90      -99.90      -99.90      -99.90    
       -99.90      -99.90      -99.90      -99.90      -99.90      -99.90      -99.90      -99.90      -99.90      -99.90    
       -99.90      -99.90      -99.90      -99.90      -99.90      -99.90      -99.90      -99.90      -99.90      -99.90    
  35   -99.90      -99.90      -99.90      -99.90      -99.90      -99.90      -99.90      -99.90      -99.90      -99.90    
       -99.90      -99.90      -99.90      -99.90      -99.90      -99.90      -99.90      -99.90      -99.90      -99.90    
       -99.90      -99.90      -99.90      -99.90      -99.90      -99.90      -99.90      -99.90      -99.90      -99.90    
       -99.90      -99.90      -99.90      -99.90      -99.90      -99.90      -99.90      -99.90      -99.90      -99.90    
  36   -99.90      -99.90      -99.90      -99.90      -99.90      -99.90      -99.90      -99.90      -99.90      -99.90    
       -99.90      -99.90      -99.90      -99.90      -99.90      -99.90      -99.90      -99.90      -99.90      -99.90    
       -99.90      -99.90      -99.90      -99.90      -99.90      -99.90      -99.90      -99.90      -99.90      -99.90    
       -99.90      -99.90      -99.90      -99.90      -99.90      -99.90      -99.90      -99.90      -99.90      -99.90    
  37   -99.90      -99.90      -99.90      -99.90      -99.90      -99.90      -99.90      -99.90      -99.90      -99.90    
       -99.90      -99.90      -99.90      -99.90      -99.90      -99.90      -99.90      -99.90      -99.90      -99.90    
       -99.90      -99.90      -99.90      -99.90      -99.90      -99.90      -99.90      -99.90      -99.90      -99.90    
       -99.90      -99.90      -99.90      -99.90      -99.90      -99.90      -99.90      -99.90      -99.90      -99.90    
  38   -99.90      -99.90      -99.90      -99.90      -99.90      -99.90      -99.90      -99.90      -99.90      -99.90    
       -99.90      -99.90      -99.90      -99.90      -99.90      -99.90      -99.90      -99.90      -99.90      -99.90    
       -99.90      -99.90      -99.90      -99.90      -99.90      -99.90      -99.90      -99.90      -99.90      -99.90    
       -99.90      -99.90      -99.90      -99.90      -99.90      -99.90      -99.90      -99.90      -99.90      -99.90    
  39   -99.90      -99.90      -99.90      -99.90      -99.90      -99.90      -99.90      -99.90      -99.90      -99.90    
       -99.90      -99.90      -99.90      -99.90      -99.90      -99.90      -99.90      -99.90      -99.90      -99.90    
       -99.90      -99.90      -99.90      -99.90      -99.90      -99.90      -99.90      -99.90      -99.90      -99.90    
       -99.90      -99.90      -99.90      -99.90      -99.90      -99.90      -99.90      -99.90      -99.90      -99.90    
  40   -99.90      -99.90      -99.90      -99.90      -99.90      -99.90      -99.90      -99.90      -99.90      -99.90    
       -99.90      -99.90      -99.90      -99.90      -99.90      -99.90      -99.90      -99.90      -99.90      -99.90    
       -99.90      -99.90      -99.90      -99.90      -99.90      -99.90      -99.90      -99.90      -99.90      -99.90    
       -99.90      -99.90      -99.90      -99.90      -99.90      -99.90      -99.90      -99.90      -99.90      -99.90    
1
              HEAD IN LAYER 3 AT END OF TIME STEP 10 IN STRESS PERIOD 1
  ---------------------------------------------------------------------------

            1           2           3           4           5           6           7           8           9          10
           11          12          13          14          15          16          17          18          19          20
           21          22          23          24          25          26          27          28          29          30
           31          32          33          34          35          36          37          38          39          40
 ........................................................................................................................
   1   -99.90      -99.90      -99.90      -99.90      -99.90      -99.90      -99.90      -99.90      -99.90      -99.90    
       -99.90      -99.90      -99.90      -99.90      -99.90      -99.90      -99.90      -99.90      -99.90      -99.90    
       -99.90      -99.90      -99.90      -99.90      -99.90      -99.90      -99.90      -99.90      -99.90      -99.90    
       -99.90      -99.90      -99.90      -99.90      -99.90      -99.90      -99.90      -99.90      -99.90      -99.90    
   2   -99.90      -99.90      -99.90      -99.90      -99.90      -99.90      -99.90      -99.90      -99.90      -99.90    
       -99.90      -99.90      -99.90      -99.90      -99.90      -99.90      -99.90      -99.90      -99.90      -99.90    
       -99.90      -99.90      -99.90      -99.90      -99.90      -99.90      -99.90      -99.90      -99.90      -99.90    
       -99.90      -99.90      -99.90      -99.90      -99.90      -99.90      -99.90      -99.90      -99.90      -99.90    
   3   -99.90      -99.90      -99.90      -99.90      -99.90      -99.90      -99.90      -99.90      -99.90      -99.90    
       -99.90      -99.90      -99.90      -99.90      -99.90      -99.90      -99.90      -99.90      -99.90      -99.90    
       -99.90      -99.90      -99.90      -99.90      -99.90      -99.90      -99.90      -99.90      -99.90      -99.90    
       -99.90      -99.90      -99.90      -99.90      -99.90      -99.90      -99.90      -99.90      -99.90      -99.90    
   4   -99.90      -99.90      -99.90      -99.90      -99.90      -99.90      -99.90      -99.90      -99.90      -99.90    
       -99.90      -99.90      -99.90      -99.90      -99.90      -99.90      -99.90      -99.90      -99.90      -99.90    
       -99.90      -99.90      -99.90      -99.90      -99.90      -99.90      -99.90      -99.90      -99.90      -99.90    
       -99.90      -99.90      -99.90      -99.90      -99.90      -99.90      -99.90      -99.90      -99.90      -99.90    
   5   -99.90      -99.90      -99.90      -99.90      -99.90      -99.90      -99.90      -99.90      -99.90      -99.90    
       -99.90      -99.90      -99.90      -99.90      -99.90      -99.90      -99.90      -99.90      -99.90      -99.90    
       -99.90      -99.90      -99.90      -99.90      -99.90      -99.90      -99.90      -99.90      -99.90      -99.90    
       -99.90      -99.90      -99.90      -99.90      -99.90      -99.90      -99.90      -99.90      -99.90      -99.90    
   6   -99.90      -99.90      -99.90      -99.90      -99.90      -99.90      -99.90      -99.90      -99.90      -99.90    
       -99.90      -99.90      -99.90      -99.90      -99.90      -99.90      -99.90      -99.90      -99.90      -99.90    
       -99.90      -99.90      -99.90      -99.90      -99.90      -99.90      -99.90      -99.90      -99.90      -99.90    
       -99.90      -99.90      -99.90      -99.90      -99.90      -99.90      -99.90      -99.90      -99.90      -99.90    
   7   -99.90      -99.90      -99.90      -99.90      -99.90      -99.90      -99.90      -99.90      -99.90      -99.90    
       -99.90      -99.90      -99.90      -99.90      -99.90      -99.90      -99.90      -99.90      -99.90      -99.90    
       -99.90      -99.90      -99.90      -99.90      -99.90      -99.90      -99.90      -99.90      -99.90      -99.90    
       -99.90      -99.90      -99.90      -99.90      -99.90      -99.90      -99.90      -99.90      -99.90      -99.90    
   8   -99.90      -99.90      -99.90      -99.90      -99.90      -99.90      -99.90      -99.90      -99.90      -99.90    
       -99.90      -99.90      -99.90      -99.90      -99.90      -99.90      -99.90      -99.90      -99.90      -99.90    
       -99.90      -99.90      -99.90      -99.90      -99.90      -99.90      -99.90      -99.90      -99.90      -99.90    
       -99.90      -99.90      -99.90      -99.90      -99.90      -99.90      -99.90      -99.90      -99.90      -99.90    
   9   -99.90      -99.90      -99.90      -99.90      -99.90      -99.90      -99.90      -99.90      -99.90      -99.90    
       -99.90      -99.90      -99.90      -99.90      -99.90      -99.90      -99.90      -99.90      -99.90      -99.90    
       -99.90      -99.90      -99.90      -99.90      -99.90      -99.90      -99.90      -99.90      -99.90      -99.90    
       -99.90      -99.90      -99.90      -99.90      -99.90      -99.90      -99.90      -99.90      -99.90      -99.90    
  10   -99.90      -99.90      -99.90      -99.90      -99.90      -99.90      -99.90      -99.90      -99.90      -99.90    
       -99.90      -99.90      -99.90      -99.90      -99.90      -99.90      -99.90      -99.90      -99.90      -99.90    
       -99.90      -99.90      -99.90      -99.90      -99.90      -99.90      -99.90      -99.90      -99.90      -99.90    
       -99.90      -99.90      -99.90      -99.90      -99.90      -99.90      -99.90      -99.90      -99.90      -99.90    
  11   -99.90      -99.90      -99.90      -99.90      -99.90      -99.90      -99.90      -99.90      -99.90      -99.90    
       -99.90      -99.90      -99.90      -99.90      -99.90      -99.90      -99.90      -99.90      -99.90      -99.90    
       -99.90      -99.90      -99.90      -99.90      -99.90      -99.90      -99.90      -99.90      -99.90      -99.90    
       -99.90      -99.90      -99.90      -99.90      -99.90      -99.90      -99.90      -99.90      -99.90      -99.90    
  12   -99.90      -99.90      -99.90      -99.90      -99.90      -99.90      -99.90      -99.90      -99.90      -99.90    
       -99.90      -99.90      -99.90      -99.90      -99.90      -99.90      -99.90      -99.90      -99.90      -99.90    
       -99.90      -99.90      -99.90      -99.90      -99.90      -99.90      -99.90      -99.90      -99.90      -99.90    
       -99.90      -99.90      -99.90      -99.90      -99.90      -99.90      -99.90      -99.90      -99.90      -99.90    
  13   -99.90      -99.90      -99.90      -99.90      -99.90      -99.90      -99.90      -99.90      -99.90      -99.90    
       -99.90      -99.90      -99.90      -99.90      -99.90      -99.90      -99.90      -99.90      -99.90      -99.90    
       -99.90      -99.90      -99.90      -99.90      -99.90      -99.90      -99.90      -99.90      -99.90      -99.90    
       -99.90      -99.90      -99.90      -99.90      -99.90      -99.90      -99.90      -99.90      -99.90      -99.90    
  14   -99.90      -99.90      -99.90      -99.90      -99.90      -99.90      -99.90      -99.90      -99.90      -99.90    
       -99.90      -99.90      -99.90      -99.90      -99.90      -99.90      -99.90      -99.90      -99.90      -99.90    
       -99.90      -99.90      -99.90      -99.90      -99.90      -99.90      -99.90      -99.90      -99.90      -99.90    
       -99.90      -99.90      -99.90      -99.90      -99.90      -99.90      -99.90      -99.90      -99.90      -99.90    
  15   -99.90      -99.90      -99.90      -99.90      -99.90      -99.90      -99.90      -99.90      -99.90      -99.90    
       -99.90      -99.90      -99.90      -99.90      -99.90      -99.90      -99.90      -99.90      -99.90      -99.90    
       -99.90      -99.90      -99.90      -99.90      -99.90      -99.90      -99.90      -99.90      -99.90      -99.90    
       -99.90      -99.90      -99.90      -99.90      -99.90      -99.90      -99.90      -99.90      -99.90      -99.90    
  16   -99.90      -99.90      -99.90      -99.90      -99.90      -99.90      -99.90      -99.90      -99.90      -99.90    
       -99.90      -99.90      -99.90      -99.90      -99.90      -99.90      -99.90      -99.90      -99.90      -99.90    
       -99.90      -99.90      -99.90      -99.90      -99.90      -99.90      -99.90      -99.90      -99.90      -99.90    
       -99.90      -99.90      -99.90      -99.90      -99.90      -99.90      -99.90      -99.90      -99.90      -99.90    
  17   -99.90      -99.90      -99.90      -99.90      -99.90      -99.90      -99.90      -99.90      -99.90      -99.90    
       -99.90      -99.90      -99.90      -99.90      -99.90      -99.90      -99.90      -99.90      -99.90      -99.90    
       -99.90      -99.90      -99.90      -99.90      -99.90      -99.90      -99.90      -99.90      -99.90      -99.90    
       -99.90      -99.90      -99.90      -99.90      -99.90      -99.90      -99.90      -99.90      -99.90      -99.90    
  18   -99.90      -99.90      -99.90      -99.90      -99.90      -99.90      -99.90      -99.90      -99.90      -99.90    
       -99.90      -99.90      -99.90      -99.90      -99.90      -99.90      -99.90      -99.90      -99.90      -99.90    
       -99.90      -99.90      -99.90      -99.90      -99.90      -99.90      -99.90      -99.90      -99.90      -99.90    
       -99.90      -99.90      -99.90      -99.90      -99.90      -99.90      -99.90      -99.90      -99.90      -99.90    
  19   -99.90      -99.90      -99.90      -99.90      -99.90      -99.90      -99.90      -99.90      -99.90      -99.90    
       -99.90      -99.90      -99.90      -99.90      -99.90      -99.90      -99.90      -99.90      -99.90      -99.90    
       -99.90      -99.90      -99.90      -99.90      -99.90      -99.90      -99.90      -99.90      -99.90      -99.90    
       -99.90      -99.90      -99.90      -99.90      -99.90      -99.90      -99.90      -99.90      -99.90      -99.90    
  20   -99.90      -99.90      -99.90      -99.90      -99.90      -99.90      -99.90      -99.90      -99.90      -99.90    
       -99.90      -99.90      -99.90      -99.90      -99.90      -99.90      -99.90      -99.90      -99.90      -99.90    
       -99.90      -99.90      -99.90      -99.90      -99.90      -99.90      -99.90      -99.90      -99.90      -99.90    
       -99.90      -99.90      -99.90      -99.90      -99.90      -99.90      -99.90      -99.90      -99.90      -99.90    
  21   -99.90      -99.90      -99.90      -99.90      -99.90      -99.90      -99.90      -99.90      -99.90      -99.90    
       -99.90      -99.90      -99.90      -99.90      -99.90      -99.90      -99.90      -99.90      -99.90      -99.90    
       -99.90      -99.90      -99.90      -99.90      -99.90      -99.90      -99.90      -99.90      -99.90      -99.90    
       -99.90      -99.90      -99.90      -99.90      -99.90      -99.90      -99.90      -99.90      -99.90      -99.90    
  22   -99.90      -99.90      -99.90      -99.90      -99.90      -99.90      -99.90      -99.90      -99.90      -99.90    
       -99.90      -99.90      -99.90      -99.90      -99.90      -99.90      -99.90      -99.90      -99.90      -99.90    
       -99.90      -99.90      -99.90      -99.90      -99.90      -99.90      -99.90      -99.90      -99.90      -99.90    
       -99.90      -99.90      -99.90      -99.90      -99.90      -99.90      -99.90      -99.90      -99.90      -99.90    
  23   -99.90      -99.90      -99.90      -99.90      -99.90      -99.90      -99.90      -99.90      -99.90      -99.90    
       -99.90      -99.90      -99.90      -99.90      -99.90      -99.90      -99.90      -99.90      -99.90      -99.90    
       -99.90      -99.90      -99.90      -99.90      -99.90      -99.90      -99.90      -99.90      -99.90      -99.90    
       -99.90      -99.90      -99.90      -99.90      -99.90      -99.90      -99.90      -99.90      -99.90      -99.90    
  24   -99.90      -99.90      -99.90      -99.90      -99.90      -99.90      -99.90      -99.90      -99.90      -99.90    
       -99.90      -99.90      -99.90      -99.90      -99.90      -99.90      -99.90      -99.90      -99.90      -99.90    
       -99.90      -99.90      -99.90      -99.90      -99.90      -99.90      -99.90      -99.90      -99.90      -99.90    
       -99.90      -99.90      -99.90      -99.90      -99.90      -99.90      -99.90      -99.90      -99.90      -99.90    
  25   -99.90      -99.90      -99.90      -99.90      -99.90      -99.90      -99.90      -99.90      -99.90      -99.90    
       -99.90      -99.90      -99.90      -99.90      -99.90      -99.90      -99.90      -99.90      -99.90      -99.90    
       -99.90      -99.90      -99.90      -99.90      -99.90      -99.90      -99.90      -99.90      -99.90      -99.90    
       -99.90      -99.90      -99.90      -99.90      -99.90      -99.90      -99.90      -99.90      -99.90      -99.90    
  26   -99.90      -99.90      -99.90      -99.90      -99.90      -99.90      -99.90      -99.90      -99.90      -99.90    
       -99.90      -99.90      -99.90      -99.90      -99.90      -99.90      -99.90      -99.90      -99.90      -99.90    
       -99.90      -99.90      -99.90      -99.90      -99.90      -99.90      -99.90      -99.90      -99.90      -99.90    
       -99.90      -99.90      -99.90      -99.90      -99.90      -99.90      -99.90      -99.90      -99.90      -99.90    
  27   -99.90      -99.90      -99.90      -99.90      -99.90      -99.90      -99.90      -99.90      -99.90      -99.90    
       -99.90      -99.90      -99.90      -99.90      -99.90      -99.90      -99.90      -99.90      -99.90      -99.90    
       -99.90      -99.90      -99.90      -99.90      -99.90      -99.90      -99.90      -99.90      -99.90      -99.90    
       -99.90      -99.90      -99.90      -99.90      -99.90      -99.90      -99.90      -99.90      -99.90      -99.90    
  28   -99.90      -99.90      -99.90      -99.90      -99.90      -99.90      -99.90      -99.90      -99.90      -99.90    
       -99.90      -99.90      -99.90      -99.90      -99.90      -99.90      -99.90      -99.90      -99.90      -99.90    
       -99.90      -99.90      -99.90      -99.90      -99.90      -99.90      -99.90      -99.90      -99.90      -99.90    
       -99.90      -99.90      -99.90      -99.90      -99.90      -99.90      -99.90      -99.90      -99.90      -99.90    
  29   -99.90      -99.90      -99.90      -99.90      -99.90      -99.90      -99.90      -99.90      -99.90      -99.90    
       -99.90      -99.90      -99.90      -99.90      -99.90      -99.90      -99.90      -99.90      -99.90      -99.90    
       -99.90      -99.90      -99.90      -99.90      -99.90      -99.90      -99.90      -99.90      -99.90      -99.90    
       -99.90      -99.90      -99.90      -99.90      -99.90      -99.90      -99.90      -99.90      -99.90      -99.90    
  30   -99.90      -99.90      -99.90      -99.90      -99.90      -99.90      -99.90      -99.90      -99.90      -99.90    
       -99.90      -99.90      -99.90      -99.90      -99.90      -99.90      -99.90      -99.90      -99.90      -99.90    
       -99.90      -99.90      -99.90      -99.90      -99.90      -99.90      -99.90      -99.90      -99.90      -99.90    
       -99.90      -99.90      -99.90      -99.90      -99.90      -99.90      -99.90      -99.90      -99.90      -99.90    
  31   -99.90      -99.90      -99.90      -99.90      -99.90      -99.90      -99.90      -99.90      -99.90      -99.90    
       -99.90      -99.90      -99.90      -99.90      -99.90      -99.90      -99.90      -99.90      -99.90      -99.90    
       -99.90      -99.90      -99.90      -99.90      -99.90      -99.90      -99.90      -99.90      -99.90      -99.90    
       -99.90      -99.90      -99.90      -99.90      -99.90      -99.90      -99.90      -99.90      -99.90      -99.90    
  32   -99.90      -99.90      -99.90      -99.90      -99.90      -99.90      -99.90      -99.90      -99.90      -99.90    
       -99.90      -99.90      -99.90      -99.90      -99.90      -99.90      -99.90      -99.90      -99.90      -99.90    
       -99.90      -99.90      -99.90      -99.90      -99.90      -99.90      -99.90      -99.90      -99.90      -99.90    
       -99.90      -99.90      -99.90      -99.90      -99.90      -99.90      -99.90      -99.90      -99.90      -99.90    
  33   -99.90      -99.90      -99.90      -99.90      -99.90      -99.90      -99.90      -99.90      -99.90      -99.90    
       -99.90      -99.90      -99.90      -99.90      -99.90      -99.90      -99.90      -99.90      -99.90      -99.90    
       -99.90      -99.90      -99.90      -99.90      -99.90      -99.90      -99.90      -99.90      -99.90      -99.90    
       -99.90      -99.90      -99.90      -99.90      -99.90      -99.90      -99.90      -99.90      -99.90      -99.90    
  34   -99.90      -99.90      -99.90      -99.90      -99.90      -99.90      -99.90      -99.90      -99.90      -99.90    
       -99.90      -99.90      -99.90      -99.90      -99.90      -99.90      -99.90      -99.90      -99.90      -99.90    
       -99.90      -99.90      -99.90      -99.90      -99.90      -99.90      -99.90      -99.90      -99.90      -99.90    
       -99.90      -99.90      -99.90      -99.90      -99.90      -99.90      -99.90      -99.90      -99.90      -99.90    
  35   -99.90      -99.90      -99.90      -99.90      -99.90      -99.90      -99.90      -99.90      -99.90      -99.90    
       -99.90      -99.90      -99.90      -99.90      -99.90      -99.90      -99.90      -99.90      -99.90      -99.90    
       -99.90      -99.90      -99.90      -99.90      -99.90      -99.90      -99.90      -99.90      -99.90      -99.90    
       -99.90      -99.90      -99.90      -99.90      -99.90      -99.90      -99.90      -99.90      -99.90      -99.90    
  36   -99.90      -99.90      -99.90      -99.90      -99.90      -99.90      -99.90      -99.90      -99.90      -99.90    
       -99.90      -99.90      -99.90      -99.90      -99.90      -99.90      -99.90      -99.90      -99.90      -99.90    
       -99.90      -99.90      -99.90      -99.90      -99.90      -99.90      -99.90      -99.90      -99.90      -99.90    
       -99.90      -99.90      -99.90      -99.90      -99.90      -99.90      -99.90      -99.90      -99.90      -99.90    
  37   -99.90      -99.90      -99.90      -99.90      -99.90      -99.90      -99.90      -99.90      -99.90      -99.90    
       -99.90      -99.90      -99.90      -99.90      -99.90      -99.90      -99.90      -99.90      -99.90      -99.90    
       -99.90      -99.90      -99.90      -99.90      -99.90      -99.90      -99.90      -99.90      -99.90      -99.90    
       -99.90      -99.90      -99.90      -99.90      -99.90      -99.90      -99.90      -99.90      -99.90      -99.90    
  38   -99.90      -99.90      -99.90      -99.90      -99.90      -99.90      -99.90      -99.90      -99.90      -99.90    
       -99.90      -99.90      -99.90      -99.90      -99.90      -99.90      -99.90      -99.90      -99.90      -99.90    
       -99.90      -99.90      -99.90      -99.90      -99.90      -99.90      -99.90      -99.90      -99.90      -99.90    
       -99.90      -99.90      -99.90      -99.90      -99.90      -99.90      -99.90      -99.90      -99.90      -99.90    
  39   -99.90      -99.90      -99.90      -99.90      -99.90      -99.90      -99.90      -99.90      -99.90      -99.90    
       -99.90      -99.90      -99.90      -99.90      -99.90      -99.90      -99.90      -99.90      -99.90      -99.90    
       -99.90      -99.90      -99.90      -99.90      -99.90      -99.90      -99.90      -99.90      -99.90      -99.90    
       -99.90      -99.90      -99.90      -99.90      -99.90      -99.90      -99.90      -99.90      -99.90      -99.90    
  40   -99.90      -99.90      -99.90      -99.90      -99.90      -99.90      -99.90      -99.90      -99.90      -99.90    
       -99.90      -99.90      -99.90      -99.90      -99.90      -99.90      -99.90      -99.90      -99.90      -99.90    
       -99.90      -99.90      -99.90      -99.90      -99.90      -99.90      -99.90      -99.90      -99.90      -99.90    
       -99.90      -99.90      -99.90      -99.90      -99.90      -99.90      -99.90      -99.90      -99.90      -99.90    
1
              HEAD IN LAYER 4 AT END OF TIME STEP 10 IN STRESS PERIOD 1
  ---------------------------------------------------------------------------

            1           2           3           4           5           6           7           8           9          10
           11          12          13          14          15          16          17          18          19          20
           21          22          23          24          25          26          27          28          29          30
           31          32          33          34          35          36          37          38          39          40
 ........................................................................................................................
   1   -99.90      -99.90      -99.90      -99.90      -99.90      -99.90      -99.90      -99.90      -99.90      -99.90    
       -99.90      -99.90      -99.90      -99.90      -99.90      -99.90      -99.90      -99.90      -99.90      -99.90    
       -99.90      -99.90      -99.90      -99.90      -99.90      -99.90      -99.90      -99.90      -99.90      -99.90    
       -99.90      -99.90      -99.90      -99.90      -99.90      -99.90      -99.90      -99.90      -99.90      -99.90    
   2   -99.90      -99.90      -99.90      -99.90      -99.90      -99.90      -99.90      -99.90      -99.90      -99.90    
       -99.90      -99.90      -99.90      -99.90      -99.90      -99.90      -99.90      -99.90      -99.90      -99.90    
       -99.90      -99.90      -99.90      -99.90      -99.90      -99.90      -99.90      -99.90      -99.90      -99.90    
       -99.90      -99.90      -99.90      -99.90      -99.90      -99.90      -99.90      -99.90      -99.90      -99.90    
   3   -99.90      -99.90      -99.90      -99.90      -99.90      -99.90      -99.90      -99.90      -99.90      -99.90    
       -99.90      -99.90      -99.90      -99.90      -99.90      -99.90      -99.90      -99.90      -99.90      -99.90    
       -99.90      -99.90      -99.90      -99.90      -99.90      -99.90      -99.90      -99.90      -99.90      -99.90    
       -99.90      -99.90      -99.90      -99.90      -99.90      -99.90      -99.90      -99.90      -99.90      -99.90    
   4   -99.90      -99.90      -99.90      -99.90      -99.90      -99.90      -99.90      -99.90      -99.90      -99.90    
       -99.90      -99.90      -99.90      -99.90      -99.90      -99.90      -99.90      -99.90      -99.90      -99.90    
       -99.90      -99.90      -99.90      -99.90      -99.90      -99.90      -99.90      -99.90      -99.90      -99.90    
       -99.90      -99.90      -99.90      -99.90      -99.90      -99.90      -99.90      -99.90      -99.90      -99.90    
   5   -99.90      -99.90      -99.90      -99.90      -99.90      -99.90      -99.90      -99.90      -99.90      -99.90    
       -99.90      -99.90      -99.90      -99.90      -99.90      -99.90      -99.90      -99.90      -99.90      -99.90    
       -99.90      -99.90      -99.90      -99.90      -99.90      -99.90      -99.90      -99.90      -99.90      -99.90    
       -99.90      -99.90      -99.90      -99.90      -99.90      -99.90      -99.90      -99.90      -99.90      -99.90    
   6   -99.90      -99.90      -99.90      -99.90      -99.90      -99.90      -99.90      -99.90      -99.90      -99.90    
       -99.90      -99.90      -99.90      -99.90      -99.90      -99.90      -99.90      -99.90      -99.90      -99.90    
       -99.90      -99.90      -99.90      -99.90      -99.90      -99.90      -99.90      -99.90      -99.90      -99.90    
       -99.90      -99.90      -99.90      -99.90      -99.90      -99.90      -99.90      -99.90      -99.90      -99.90    
   7   -99.90      -99.90      -99.90      -99.90      -99.90      -99.90      -99.90      -99.90      -99.90      -99.90    
       -99.90      -99.90      -99.90      -99.90      -99.90      -99.90      -99.90      -99.90      -99.90      -99.90    
       -99.90      -99.90      -99.90      -99.90      -99.90      -99.90      -99.90      -99.90      -99.90      -99.90    
       -99.90      -99.90      -99.90      -99.90      -99.90      -99.90      -99.90      -99.90      -99.90      -99.90    
   8   -99.90      -99.90      -99.90      -99.90      -99.90      -99.90      -99.90      -99.90      -99.90      -99.90    
       -99.90      -99.90      -99.90      -99.90      -99.90      -99.90      -99.90      -99.90      -99.90      -99.90    
       -99.90      -99.90      -99.90      -99.90      -99.90      -99.90      -99.90      -99.90      -99.90      -99.90    
       -99.90      -99.90      -99.90      -99.90      -99.90      -99.90      -99.90      -99.90      -99.90      -99.90    
   9   -99.90      -99.90      -99.90      -99.90      -99.90      -99.90      -99.90      -99.90      -99.90      -99.90    
       -99.90      -99.90      -99.90      -99.90      -99.90      -99.90      -99.90      -99.90      -99.90      -99.90    
       -99.90      -99.90      -99.90      -99.90      -99.90      -99.90      -99.90      -99.90      -99.90      -99.90    
       -99.90      -99.90      -99.90      -99.90      -99.90      -99.90      -99.90      -99.90      -99.90      -99.90    
  10   -99.90      -99.90      -99.90      -99.90      -99.90      -99.90      -99.90      -99.90      -99.90      -99.90    
       -99.90      -99.90      -99.90      -99.90      -99.90      -99.90      -99.90      -99.90      -99.90      -99.90    
       -99.90      -99.90      -99.90      -99.90      -99.90      -99.90      -99.90      -99.90      -99.90      -99.90    
       -99.90      -99.90      -99.90      -99.90      -99.90      -99.90      -99.90      -99.90      -99.90      -99.90    
  11   -99.90      -99.90      -99.90      -99.90      -99.90      -99.90      -99.90      -99.90      -99.90      -99.90    
       -99.90      -99.90      -99.90      -99.90      -99.90      -99.90      -99.90      -99.90      -99.90      -99.90    
       -99.90      -99.90      -99.90      -99.90      -99.90      -99.90      -99.90      -99.90      -99.90      -99.90    
       -99.90      -99.90      -99.90      -99.90      -99.90      -99.90      -99.90      -99.90      -99.90      -99.90    
  12   -99.90      -99.90      -99.90      -99.90      -99.90      -99.90      -99.90      -99.90      -99.90      -99.90    
       -99.90      -99.90      -99.90      -99.90      -99.90      -99.90      -99.90      -99.90      -99.90      -99.90    
       -99.90      -99.90      -99.90      -99.90      -99.90      -99.90      -99.90      -99.90      -99.90      -99.90    
       -99.90      -99.90      -99.90      -99.90      -99.90      -99.90      -99.90      -99.90      -99.90      -99.90    
  13   -99.90      -99.90      -99.90      -99.90      -99.90      -99.90      -99.90      -99.90      -99.90      -99.90    
       -99.90      -99.90      -99.90      -99.90      -99.90      -99.90      -99.90      -99.90      -99.90      -99.90    
       -99.90      -99.90      -99.90      -99.90      -99.90      -99.90      -99.90      -99.90      -99.90      -99.90    
       -99.90      -99.90      -99.90      -99.90      -99.90      -99.90      -99.90      -99.90      -99.90      -99.90    
  14   -99.90      -99.90      -99.90      -99.90      -99.90      -99.90      -99.90      -99.90      -99.90      -99.90    
       -99.90      -99.90      -99.90      -99.90      -99.90      -99.90      -99.90      -99.90      -99.90      -99.90    
       -99.90      -99.90      -99.90      -99.90      -99.90      -99.90      -99.90      -99.90      -99.90      -99.90    
       -99.90      -99.90      -99.90      -99.90      -99.90      -99.90      -99.90      -99.90      -99.90      -99.90    
  15   -99.90      -99.90      -99.90      -99.90      -99.90      -99.90      -99.90      -99.90      -99.90      -99.90    
       -99.90      -99.90      -99.90      -99.90      -99.90      -99.90      -99.90      -99.90      -99.90      -99.90    
       -99.90      -99.90      -99.90      -99.90      -99.90      -99.90      -99.90      -99.90      -99.90      -99.90    
       -99.90      -99.90      -99.90      -99.90      -99.90      -99.90      -99.90      -99.90      -99.90      -99.90    
  16   -99.90      -99.90      -99.90      -99.90      -99.90      -99.90      -99.90      -99.90      -99.90      -99.90    
       -99.90      -99.90      -99.90      -99.90      -99.90      -99.90      -99.90      -99.90      -99.90      -99.90    
       -99.90      -99.90      -99.90      -99.90      -99.90      -99.90      -99.90      -99.90      -99.90      -99.90    
       -99.90      -99.90      -99.90      -99.90      -99.90      -99.90      -99.90      -99.90      -99.90      -99.90    
  17   -99.90      -99.90      -99.90      -99.90      -99.90      -99.90      -99.90      -99.90      -99.90      -99.90    
       -99.90      -99.90      -99.90      -99.90      -99.90      -99.90      -99.90      -99.90      -99.90      -99.90    
       -99.90      -99.90      -99.90      -99.90      -99.90      -99.90      -99.90      -99.90      -99.90      -99.90    
       -99.90      -99.90      -99.90      -99.90      -99.90      -99.90      -99.90      -99.90      -99.90      -99.90    
  18   -99.90      -99.90      -99.90      -99.90      -99.90      -99.90      -99.90      -99.90      -99.90      -99.90    
       -99.90      -99.90      -99.90      -99.90      -99.90      -99.90      -99.90      -99.90      -99.90      -99.90    
       -99.90      -99.90      -99.90      -99.90      -99.90      -99.90      -99.90      -99.90      -99.90      -99.90    
       -99.90      -99.90      -99.90      -99.90      -99.90      -99.90      -99.90      -99.90      -99.90      -99.90    
  19   -99.90      -99.90      -99.90      -99.90      -99.90      -99.90      -99.90      -99.90      -99.90      -99.90    
       -99.90      -99.90      -99.90      -99.90      -99.90      -99.90      -99.90      -99.90      -99.90      -99.90    
       -99.90      -99.90      -99.90      -99.90      -99.90      -99.90      -99.90      -99.90      -99.90      -99.90    
       -99.90      -99.90      -99.90      -99.90      -99.90      -99.90      -99.90      -99.90      -99.90      -99.90    
  20   -99.90      -99.90      -99.90      -99.90      -99.90      -99.90      -99.90      -99.90      -99.90      -99.90    
       -99.90      -99.90      -99.90      -99.90      -99.90      -99.90      -99.90      -99.90      -99.90      -99.90    
       -99.90      -99.90      -99.90      -99.90      -99.90      -99.90      -99.90      -99.90      -99.90      -99.90    
       -99.90      -99.90      -99.90      -99.90      -99.90      -99.90      -99.90      -99.90      -99.90      -99.90    
  21   -99.90      -99.90      -99.90      -99.90      -99.90      -99.90      -99.90      -99.90      -99.90      -99.90    
       -99.90      -99.90      -99.90      -99.90      -99.90      -99.90      -99.90      -99.90      -99.90      -99.90    
       -99.90      -99.90      -99.90      -99.90      -99.90      -99.90      -99.90      -99.90      -99.90      -99.90    
       -99.90      -99.90      -99.90      -99.90      -99.90      -99.90      -99.90      -99.90      -99.90      -99.90    
  22   -99.90      -99.90      -99.90      -99.90      -99.90      -99.90      -99.90      -99.90      -99.90      -99.90    
       -99.90      -99.90      -99.90      -99.90      -99.90      -99.90      -99.90      -99.90      -99.90      -99.90    
       -99.90      -99.90      -99.90      -99.90      -99.90      -99.90      -99.90      -99.90      -99.90      -99.90    
       -99.90      -99.90      -99.90      -99.90      -99.90      -99.90      -99.90      -99.90      -99.90      -99.90    
  23   -99.90      -99.90      -99.90      -99.90      -99.90      -99.90      -99.90      -99.90      -99.90      -99.90    
       -99.90      -99.90      -99.90      -99.90      -99.90      -99.90      -99.90      -99.90      -99.90      -99.90    
       -99.90      -99.90      -99.90      -99.90      -99.90      -99.90      -99.90      -99.90      -99.90      -99.90    
       -99.90      -99.90      -99.90      -99.90      -99.90      -99.90      -99.90      -99.90      -99.90      -99.90    
  24   -99.90      -99.90      -99.90      -99.90      -99.90      -99.90      -99.90      -99.90      -99.90      -99.90    
       -99.90      -99.90      -99.90      -99.90      -99.90      -99.90      -99.90      -99.90      -99.90      -99.90    
       -99.90      -99.90      -99.90      -99.90      -99.90      -99.90      -99.90      -99.90      -99.90      -99.90    
       -99.90      -99.90      -99.90      -99.90      -99.90      -99.90      -99.90      -99.90      -99.90      -99.90    
  25   -99.90      -99.90      -99.90      -99.90      -99.90      -99.90      -99.90      -99.90      -99.90      -99.90    
       -99.90      -99.90      -99.90      -99.90      -99.90      -99.90      -99.90      -99.90      -99.90      -99.90    
       -99.90      -99.90      -99.90      -99.90      -99.90      -99.90      -99.90      -99.90      -99.90      -99.90    
       -99.90      -99.90      -99.90      -99.90      -99.90      -99.90      -99.90      -99.90      -99.90      -99.90    
  26   -99.90      -99.90      -99.90      -99.90      -99.90      -99.90      -99.90      -99.90      -99.90      -99.90    
       -99.90      -99.90      -99.90      -99.90      -99.90      -99.90      -99.90      -99.90      -99.90      -99.90    
       -99.90      -99.90      -99.90      -99.90      -99.90      -99.90      -99.90      -99.90      -99.90      -99.90    
       -99.90      -99.90      -99.90      -99.90      -99.90      -99.90      -99.90      -99.90      -99.90      -99.90    
  27   -99.90      -99.90      -99.90      -99.90      -99.90      -99.90      -99.90      -99.90      -99.90      -99.90    
       -99.90      -99.90      -99.90      -99.90      -99.90      -99.90      -99.90      -99.90      -99.90      -99.90    
       -99.90      -99.90      -99.90      -99.90      -99.90      -99.90      -99.90      -99.90      -99.90      -99.90    
       -99.90      -99.90      -99.90      -99.90      -99.90      -99.90      -99.90      -99.90      -99.90      -99.90    
  28   -99.90      -99.90      -99.90      -99.90      -99.90      -99.90      -99.90      -99.90      -99.90      -99.90    
       -99.90      -99.90      -99.90      -99.90      -99.90      -99.90      -99.90      -99.90      -99.90      -99.90    
       -99.90      -99.90      -99.90      -99.90      -99.90      -99.90      -99.90      -99.90      -99.90      -99.90    
       -99.90      -99.90      -99.90      -99.90      -99.90      -99.90      -99.90      -99.90      -99.90      -99.90    
  29   -99.90      -99.90      -99.90      -99.90      -99.90      -99.90      -99.90      -99.90      -99.90      -99.90    
       -99.90      -99.90      -99.90      -99.90      -99.90      -99.90      -99.90      -99.90      -99.90      -99.90    
       -99.90      -99.90      -99.90      -99.90      -99.90      -99.90      -99.90      -99.90      -99.90      -99.90    
       -99.90      -99.90      -99.90      -99.90      -99.90      -99.90      -99.90      -99.90      -99.90      -99.90    
  30   -99.90      -99.90      -99.90      -99.90      -99.90      -99.90      -99.90      -99.90      -99.90      -99.90    
       -99.90      -99.90      -99.90      -99.90      -99.90      -99.90      -99.90      -99.90      -99.90      -99.90    
       -99.90      -99.90      -99.90      -99.90      -99.90      -99.90      -99.90      -99.90      -99.90      -99.90    
       -99.90      -99.90      -99.90      -99.90      -99.90      -99.90      -99.90      -99.90      -99.90      -99.90    
  31   -99.90      -99.90      -99.90      -99.90      -99.90      -99.90      -99.90      -99.90      -99.90      -99.90    
       -99.90      -99.90      -99.90      -99.90      -99.90      -99.90      -99.90      -99.90      -99.90      -99.90    
       -99.90      -99.90      -99.90      -99.90      -99.90      -99.90      -99.90      -99.90      -99.90      -99.90    
       -99.90      -99.90      -99.90      -99.90      -99.90      -99.90      -99.90      -99.90      -99.90      -99.90    
  32   -99.90      -99.90      -99.90      -99.90      -99.90      -99.90      -99.90      -99.90      -99.90      -99.90    
       -99.90      -99.90      -99.90      -99.90      -99.90      -99.90      -99.90      -99.90      -99.90      -99.90    
       -99.90      -99.90      -99.90      -99.90      -99.90      -99.90      -99.90      -99.90      -99.90      -99.90    
       -99.90      -99.90      -99.90      -99.90      -99.90      -99.90      -99.90      -99.90      -99.90      -99.90    
  33   -99.90      -99.90      -99.90      -99.90      -99.90      -99.90      -99.90      -99.90      -99.90      -99.90    
       -99.90      -99.90      -99.90      -99.90      -99.90      -99.90      -99.90      -99.90      -99.90      -99.90    
       -99.90      -99.90      -99.90      -99.90      -99.90      -99.90      -99.90      -99.90      -99.90      -99.90    
       -99.90      -99.90      -99.90      -99.90      -99.90      -99.90      -99.90      -99.90      -99.90      -99.90    
  34   -99.90      -99.90      -99.90      -99.90      -99.90      -99.90      -99.90      -99.90      -99.90      -99.90    
       -99.90      -99.90      -99.90      -99.90      -99.90      -99.90      -99.90      -99.90      -99.90      -99.90    
       -99.90      -99.90      -99.90      -99.90      -99.90      -99.90      -99.90      -99.90      -99.90      -99.90    
       -99.90      -99.90      -99.90      -99.90      -99.90      -99.90      -99.90      -99.90      -99.90      -99.90    
  35   -99.90      -99.90      -99.90      -99.90      -99.90      -99.90      -99.90      -99.90      -99.90      -99.90    
       -99.90      -99.90      -99.90      -99.90      -99.90      -99.90      -99.90      -99.90      -99.90      -99.90    
       -99.90      -99.90      -99.90      -99.90      -99.90      -99.90      -99.90      -99.90      -99.90      -99.90    
       -99.90      -99.90      -99.90      -99.90      -99.90      -99.90      -99.90      -99.90      -99.90      -99.90    
  36   -99.90      -99.90      -99.90      -99.90      -99.90      -99.90      -99.90      -99.90      -99.90      -99.90    
       -99.90      -99.90      -99.90      -99.90      -99.90      -99.90      -99.90      -99.90      -99.90      -99.90    
       -99.90      -99.90      -99.90      -99.90      -99.90      -99.90      -99.90      -99.90      -99.90      -99.90    
       -99.90      -99.90      -99.90      -99.90      -99.90      -99.90      -99.90      -99.90      -99.90      -99.90    
  37   -99.90      -99.90      -99.90      -99.90      -99.90      -99.90      -99.90      -99.90      -99.90      -99.90    
       -99.90      -99.90      -99.90      -99.90      -99.90      -99.90      -99.90      -99.90      -99.90      -99.90    
       -99.90      -99.90      -99.90      -99.90      -99.90      -99.90      -99.90      -99.90      -99.90      -99.90    
       -99.90      -99.90      -99.90      -99.90      -99.90      -99.90      -99.90      -99.90      -99.90      -99.90    
  38   -99.90      -99.90      -99.90      -99.90      -99.90      -99.90      -99.90      -99.90      -99.90      -99.90    
       -99.90      -99.90      -99.90      -99.90      -99.90      -99.90      -99.90      -99.90      -99.90      -99.90    
       -99.90      -99.90      -99.90      -99.90      -99.90      -99.90      -99.90      -99.90      -99.90      -99.90    
       -99.90      -99.90      -99.90      -99.90      -99.90      -99.90      -99.90      -99.90      -99.90      -99.90    
  39   -99.90      -99.90      -99.90      -99.90      -99.90      -99.90      -99.90      -99.90      -99.90      -99.90    
       -99.90      -99.90      -99.90      -99.90      -99.90      -99.90      -99.90      -99.90      -99.90      -99.90    
       -99.90      -99.90      -99.90      -99.90      -99.90      -99.90      -99.90      -99.90      -99.90      -99.90    
       -99.90      -99.90      -99.90      -99.90      -99.90      -99.90      -99.90      -99.90      -99.90      -99.90    
  40   -99.90      -99.90      -99.90      -99.90      -99.90      -99.90      -99.90      -99.90      -99.90      -99.90    
       -99.90      -99.90      -99.90      -99.90      -99.90      -99.90      -99.90      -99.90      -99.90      -99.90    
       -99.90      -99.90      -99.90      -99.90      -99.90      -99.90      -99.90      -99.90      -99.90      -99.90    
       -99.90      -99.90      -99.90      -99.90      -99.90      -99.90      -99.90      -99.90      -99.90      -99.90    
1
              HEAD IN LAYER 5 AT END OF TIME STEP 10 IN STRESS PERIOD 1
  ---------------------------------------------------------------------------

            1           2           3           4           5           6           7           8           9          10
           11          12          13          14          15          16          17          18          19          20
           21          22          23          24          25          26          27          28          29          30
           31          32          33          34          35          36          37          38          39          40
 ........................................................................................................................
   1   -99.90      -99.90      -99.90      -99.90      -99.90      -99.90      -99.90      -99.90      -99.90      -99.90    
       -99.90      -99.90      -99.90      -99.90      -99.90      -99.90      -99.90      -99.90      -99.90      -99.90    
       -99.90      -99.90      -99.90      -99.90      -99.90      -99.90      -99.90      -99.90      -99.90      -99.90    
       -99.90      -99.90      -99.90      -99.90      -99.90      -99.90      -99.90      -99.90      -99.90      -99.90    
   2   -99.90      -99.90      -99.90      -99.90      -99.90      -99.90      -99.90      -99.90      -99.90      -99.90    
       -99.90      -99.90      -99.90      -99.90      -99.90      -99.90      -99.90      -99.90      -99.90      -99.90    
       -99.90      -99.90      -99.90      -99.90      -99.90      -99.90      -99.90      -99.90      -99.90      -99.90    
       -99.90      -99.90      -99.90      -99.90      -99.90      -99.90      -99.90      -99.90      -99.90      -99.90    
   3   -99.90      -99.90      -99.90      -99.90      -99.90      -99.90      -99.90      -99.90      -99.90      -99.90    
       -99.90      -99.90      -99.90      -99.90      -99.90      -99.90      -99.90      -99.90      -99.90      -99.90    
       -99.90      -99.90      -99.90      -99.90      -99.90      -99.90      -99.90      -99.90      -99.90      -99.90    
       -99.90      -99.90      -99.90      -99.90      -99.90      -99.90      -99.90      -99.90      -99.90      -99.90    
   4   -99.90      -99.90      -99.90      -99.90      -99.90      -99.90      -99.90      -99.90      -99.90      -99.90    
       -99.90      -99.90      -99.90      -99.90      -99.90      -99.90      -99.90      -99.90      -99.90      -99.90    
       -99.90      -99.90      -99.90      -99.90      -99.90      -99.90      -99.90      -99.90      -99.90      -99.90    
       -99.90      -99.90      -99.90      -99.90      -99.90      -99.90      -99.90      -99.90      -99.90      -99.90    
   5   -99.90      -99.90      -99.90      -99.90      -99.90      -99.90      -99.90      -99.90      -99.90      -99.90    
       -99.90      -99.90      -99.90      -99.90      -99.90      -99.90      -99.90      -99.90      -99.90      -99.90    
       -99.90      -99.90      -99.90      -99.90      -99.90      -99.90      -99.90      -99.90      -99.90      -99.90    
       -99.90      -99.90      -99.90      -99.90      -99.90      -99.90      -99.90      -99.90      -99.90      -99.90    
   6   -99.90      -99.90      -99.90      -99.90      -99.90      -99.90      -99.90      -99.90      -99.90      -99.90    
       -99.90      -99.90      -99.90      -99.90      -99.90      -99.90      -99.90      -99.90      -99.90      -99.90    
       -99.90      -99.90      -99.90      -99.90      -99.90      -99.90      -99.90      -99.90      -99.90      -99.90    
       -99.90      -99.90      -99.90      -99.90      -99.90      -99.90      -99.90      -99.90      -99.90      -99.90    
   7   -99.90      -99.90      -99.90      -99.90      -99.90      -99.90      -99.90      -99.90      -99.90      -99.90    
       -99.90      -99.90      -99.90      -99.90      -99.90      -99.90      -99.90      -99.90      -99.90      -99.90    
       -99.90      -99.90      -99.90      -99.90      -99.90      -99.90      -99.90      -99.90      -99.90      -99.90    
       -99.90      -99.90      -99.90      -99.90      -99.90      -99.90      -99.90      -99.90      -99.90      -99.90    
   8   -99.90      -99.90      -99.90      -99.90      -99.90      -99.90      -99.90      -99.90      -99.90      -99.90    
       -99.90      -99.90      -99.90      -99.90      -99.90      -99.90      -99.90      -99.90      -99.90      -99.90    
       -99.90      -99.90      -99.90      -99.90      -99.90      -99.90      -99.90      -99.90      -99.90      -99.90    
       -99.90      -99.90      -99.90      -99.90      -99.90      -99.90      -99.90      -99.90      -99.90      -99.90    
   9   -99.90      -99.90      -99.90      -99.90      -99.90      -99.90      -99.90      -99.90      -99.90      -99.90    
       -99.90      -99.90      -99.90      -99.90      -99.90      -99.90      -99.90      -99.90      -99.90      -99.90    
       -99.90      -99.90      -99.90      -99.90      -99.90      -99.90      -99.90      -99.90      -99.90      -99.90    
       -99.90      -99.90      -99.90      -99.90      -99.90      -99.90      -99.90      -99.90      -99.90      -99.90    
  10   -99.90      -99.90      -99.90      -99.90      -99.90      -99.90      -99.90      -99.90      -99.90      -99.90    
       -99.90      -99.90      -99.90      -99.90      -99.90      -99.90      -99.90      -99.90      -99.90      -99.90    
       -99.90      -99.90      -99.90      -99.90      -99.90      -99.90      -99.90      -99.90      -99.90      -99.90    
       -99.90      -99.90      -99.90      -99.90      -99.90      -99.90      -99.90      -99.90      -99.90      -99.90    
  11   -99.90      -99.90      -99.90      -99.90      -99.90      -99.90      -99.90      -99.90      -99.90      -99.90    
       -99.90      -99.90      -99.90      -99.90      -99.90      -99.90      -99.90      -99.90      -99.90      -99.90    
       -99.90      -99.90      -99.90      -99.90      -99.90      -99.90      -99.90      -99.90      -99.90      -99.90    
       -99.90      -99.90      -99.90      -99.90      -99.90      -99.90      -99.90      -99.90      -99.90      -99.90    
  12   -99.90      -99.90      -99.90      -99.90      -99.90      -99.90      -99.90      -99.90      -99.90      -99.90    
       -99.90      -99.90      -99.90      -99.90      -99.90      -99.90      -99.90      -99.90      -99.90      -99.90    
       -99.90      -99.90      -99.90      -99.90      -99.90      -99.90      -99.90      -99.90      -99.90      -99.90    
       -99.90      -99.90      -99.90      -99.90      -99.90      -99.90      -99.90      -99.90      -99.90      -99.90    
  13   -99.90      -99.90      -99.90      -99.90      -99.90      -99.90      -99.90      -99.90      -99.90      -99.90    
       -99.90      -99.90      -99.90      -99.90      -99.90      -99.90      -99.90      -99.90      -99.90      -99.90    
       -99.90      -99.90      -99.90      -99.90      -99.90      -99.90      -99.90      -99.90      -99.90      -99.90    
       -99.90      -99.90      -99.90      -99.90      -99.90      -99.90      -99.90      -99.90      -99.90      -99.90    
  14   -99.90      -99.90      -99.90      -99.90      -99.90      -99.90      -99.90      -99.90      -99.90      -99.90    
       -99.90      -99.90      -99.90      -99.90      -99.90      -99.90      -99.90      -99.90      -99.90      -99.90    
       -99.90      -99.90      -99.90      -99.90      -99.90      -99.90      -99.90      -99.90      -99.90      -99.90    
       -99.90      -99.90      -99.90      -99.90      -99.90      -99.90      -99.90      -99.90      -99.90      -99.90    
  15   -99.90      -99.90      -99.90      -99.90      -99.90      -99.90      -99.90      -99.90      -99.90      -99.90    
       -99.90      -99.90      -99.90      -99.90      -99.90      -99.90      -99.90      -99.90      -99.90      -99.90    
       -99.90      -99.90      -99.90      -99.90      -99.90      -99.90      -99.90      -99.90      -99.90      -99.90    
       -99.90      -99.90      -99.90      -99.90      -99.90      -99.90      -99.90      -99.90      -99.90      -99.90    
  16   -99.90      -99.90      -99.90      -99.90      -99.90      -99.90      -99.90      -99.90      -99.90      -99.90    
       -99.90      -99.90      -99.90      -99.90      -99.90      -99.90      -99.90      -99.90      -99.90      -99.90    
       -99.90      -99.90      -99.90      -99.90      -99.90      -99.90      -99.90      -99.90      -99.90      -99.90    
       -99.90      -99.90      -99.90      -99.90      -99.90      -99.90      -99.90      -99.90      -99.90      -99.90    
  17   -99.90      -99.90      -99.90      -99.90      -99.90      -99.90      -99.90      -99.90      -99.90      -99.90    
       -99.90      -99.90      -99.90      -99.90      -99.90      -99.90      -99.90      -99.90      -99.90      -99.90    
       -99.90      -99.90      -99.90      -99.90      -99.90      -99.90      -99.90      -99.90      -99.90      -99.90    
       -99.90      -99.90      -99.90      -99.90      -99.90      -99.90      -99.90      -99.90      -99.90      -99.90    
  18   -99.90      -99.90      -99.90      -99.90      -99.90      -99.90      -99.90      -99.90      -99.90      -99.90    
       -99.90      -99.90      -99.90      -99.90      -99.90      -99.90      -99.90      -99.90      -99.90      -99.90    
       -99.90      -99.90      -99.90      -99.90      -99.90      -99.90      -99.90      -99.90      -99.90      -99.90    
       -99.90      -99.90      -99.90      -99.90      -99.90      -99.90      -99.90      -99.90      -99.90      -99.90    
  19   -99.90      -99.90      -99.90      -99.90      -99.90      -99.90      -99.90      -99.90      -99.90      -99.90    
       -99.90      -99.90      -99.90      -99.90      -99.90      -99.90      -99.90      -99.90      -99.90      -99.90    
       -99.90      -99.90      -99.90      -99.90      -99.90      -99.90      -99.90      -99.90      -99.90      -99.90    
       -99.90      -99.90      -99.90      -99.90      -99.90      -99.90      -99.90      -99.90      -99.90      -99.90    
  20   -99.90      -99.90      -99.90      -99.90      -99.90      -99.90      -99.90      -99.90      -99.90      -99.90    
       -99.90      -99.90      -99.90      -99.90      -99.90      -99.90      -99.90      -99.90      -99.90      -99.90    
       -99.90      -99.90      -99.90      -99.90      -99.90      -99.90      -99.90      -99.90      -99.90      -99.90    
       -99.90      -99.90      -99.90      -99.90      -99.90      -99.90      -99.90      -99.90      -99.90      -99.90    
  21   -99.90      -99.90      -99.90      -99.90      -99.90      -99.90      -99.90      -99.90      -99.90      -99.90    
       -99.90      -99.90      -99.90      -99.90      -99.90      -99.90      -99.90      -99.90      -99.90      -99.90    
       -99.90      -99.90      -99.90      -99.90      -99.90      -99.90      -99.90      -99.90      -99.90      -99.90    
       -99.90      -99.90      -99.90      -99.90      -99.90      -99.90      -99.90      -99.90      -99.90      -99.90    
  22   -99.90      -99.90      -99.90      -99.90      -99.90      -99.90      -99.90      -99.90      -99.90      -99.90    
       -99.90      -99.90      -99.90      -99.90      -99.90      -99.90      -99.90      -99.90      -99.90      -99.90    
       -99.90      -99.90      -99.90      -99.90      -99.90      -99.90      -99.90      -99.90      -99.90      -99.90    
       -99.90      -99.90      -99.90      -99.90      -99.90      -99.90      -99.90      -99.90      -99.90      -99.90    
  23   -99.90      -99.90      -99.90      -99.90      -99.90      -99.90      -99.90      -99.90      -99.90      -99.90    
       -99.90      -99.90      -99.90      -99.90      -99.90      -99.90      -99.90      -99.90      -99.90      -99.90    
       -99.90      -99.90      -99.90      -99.90      -99.90      -99.90      -99.90      -99.90      -99.90      -99.90    
       -99.90      -99.90      -99.90      -99.90      -99.90      -99.90      -99.90      -99.90      -99.90      -99.90    
  24   -99.90      -99.90      -99.90      -99.90      -99.90      -99.90      -99.90      -99.90      -99.90      -99.90    
       -99.90      -99.90      -99.90      -99.90      -99.90      -99.90      -99.90      -99.90      -99.90      -99.90    
       -99.90      -99.90      -99.90      -99.90      -99.90      -99.90      -99.90      -99.90      -99.90      -99.90    
       -99.90      -99.90      -99.90      -99.90      -99.90      -99.90      -99.90      -99.90      -99.90      -99.90    
  25   -99.90      -99.90      -99.90      -99.90      -99.90      -99.90      -99.90      -99.90      -99.90      -99.90    
       -99.90      -99.90      -99.90      -99.90      -99.90      -99.90      -99.90      -99.90      -99.90      -99.90    
       -99.90      -99.90      -99.90      -99.90      -99.90      -99.90      -99.90      -99.90      -99.90      -99.90    
       -99.90      -99.90      -99.90      -99.90      -99.90      -99.90      -99.90      -99.90      -99.90      -99.90    
  26   -99.90      -99.90      -99.90      -99.90      -99.90      -99.90      -99.90      -99.90      -99.90      -99.90    
       -99.90      -99.90      -99.90      -99.90      -99.90      -99.90      -99.90      -99.90      -99.90      -99.90    
       -99.90      -99.90      -99.90      -99.90      -99.90      -99.90      -99.90      -99.90      -99.90      -99.90    
       -99.90      -99.90      -99.90      -99.90      -99.90      -99.90      -99.90      -99.90      -99.90      -99.90    
  27   -99.90      -99.90      -99.90      -99.90      -99.90      -99.90      -99.90      -99.90      -99.90      -99.90    
       -99.90      -99.90      -99.90      -99.90      -99.90      -99.90      -99.90      -99.90      -99.90      -99.90    
       -99.90      -99.90      -99.90      -99.90      -99.90      -99.90      -99.90      -99.90      -99.90      -99.90    
       -99.90      -99.90      -99.90      -99.90      -99.90      -99.90      -99.90      -99.90      -99.90      -99.90    
  28   -99.90      -99.90      -99.90      -99.90      -99.90      -99.90      -99.90      -99.90      -99.90      -99.90    
       -99.90      -99.90      -99.90      -99.90      -99.90      -99.90      -99.90      -99.90      -99.90      -99.90    
       -99.90      -99.90      -99.90      -99.90      -99.90      -99.90      -99.90      -99.90      -99.90      -99.90    
       -99.90      -99.90      -99.90      -99.90      -99.90      -99.90      -99.90      -99.90      -99.90      -99.90    
  29   -99.90      -99.90      -99.90      -99.90      -99.90      -99.90      -99.90      -99.90      -99.90      -99.90    
       -99.90      -99.90      -99.90      -99.90      -99.90      -99.90      -99.90      -99.90      -99.90      -99.90    
       -99.90      -99.90      -99.90      -99.90      -99.90      -99.90      -99.90      -99.90      -99.90      -99.90    
       -99.90      -99.90      -99.90      -99.90      -99.90      -99.90      -99.90      -99.90      -99.90      -99.90    
  30   -99.90      -99.90      -99.90      -99.90      -99.90      -99.90      -99.90      -99.90      -99.90      -99.90    
       -99.90      -99.90      -99.90      -99.90      -99.90      -99.90      -99.90      -99.90      -99.90      -99.90    
       -99.90      -99.90      -99.90      -99.90      -99.90      -99.90      -99.90      -99.90      -99.90      -99.90    
       -99.90      -99.90      -99.90      -99.90      -99.90      -99.90      -99.90      -99.90      -99.90      -99.90    
  31   -99.90      -99.90      -99.90      -99.90      -99.90      -99.90      -99.90      -99.90      -99.90      -99.90    
       -99.90      -99.90      -99.90      -99.90      -99.90      -99.90      -99.90      -99.90      -99.90      -99.90    
       -99.90      -99.90      -99.90      -99.90      -99.90      -99.90      -99.90      -99.90      -99.90      -99.90    
       -99.90      -99.90      -99.90      -99.90      -99.90      -99.90      -99.90      -99.90      -99.90      -99.90    
  32   -99.90      -99.90      -99.90      -99.90      -99.90      -99.90      -99.90      -99.90      -99.90      -99.90    
       -99.90      -99.90      -99.90      -99.90      -99.90      -99.90      -99.90      -99.90      -99.90      -99.90    
       -99.90      -99.90      -99.90      -99.90      -99.90      -99.90      -99.90      -99.90      -99.90      -99.90    
       -99.90      -99.90      -99.90      -99.90      -99.90      -99.90      -99.90      -99.90      -99.90      -99.90    
  33   -99.90      -99.90      -99.90      -99.90      -99.90      -99.90      -99.90      -99.90      -99.90      -99.90    
       -99.90      -99.90      -99.90      -99.90      -99.90      -99.90      -99.90      -99.90      -99.90      -99.90    
       -99.90      -99.90      -99.90      -99.90      -99.90      -99.90      -99.90      -99.90      -99.90      -99.90    
       -99.90      -99.90      -99.90      -99.90      -99.90      -99.90      -99.90      -99.90      -99.90      -99.90    
  34   -99.90      -99.90      -99.90      -99.90      -99.90      -99.90      -99.90      -99.90      -99.90      -99.90    
       -99.90      -99.90      -99.90      -99.90      -99.90      -99.90      -99.90      -99.90      -99.90      -99.90    
       -99.90      -99.90      -99.90      -99.90      -99.90      -99.90      -99.90      -99.90      -99.90      -99.90    
       -99.90      -99.90      -99.90      -99.90      -99.90      -99.90      -99.90      -99.90      -99.90      -99.90    
  35   -99.90      -99.90      -99.90      -99.90      -99.90      -99.90      -99.90      -99.90      -99.90      -99.90    
       -99.90      -99.90      -99.90      -99.90      -99.90      -99.90      -99.90      -99.90      -99.90      -99.90    
       -99.90      -99.90      -99.90      -99.90      -99.90      -99.90      -99.90      -99.90      -99.90      -99.90    
       -99.90      -99.90      -99.90      -99.90      -99.90      -99.90      -99.90      -99.90      -99.90      -99.90    
  36   -99.90      -99.90      -99.90      -99.90      -99.90      -99.90      -99.90      -99.90      -99.90      -99.90    
       -99.90      -99.90      -99.90      -99.90      -99.90      -99.90      -99.90      -99.90      -99.90      -99.90    
       -99.90      -99.90      -99.90      -99.90      -99.90      -99.90      -99.90      -99.90      -99.90      -99.90    
       -99.90      -99.90      -99.90      -99.90      -99.90      -99.90      -99.90      -99.90      -99.90      -99.90    
  37   -99.90      -99.90      -99.90      -99.90      -99.90      -99.90      -99.90      -99.90      -99.90      -99.90    
       -99.90      -99.90      -99.90      -99.90      -99.90      -99.90      -99.90      -99.90      -99.90      -99.90    
       -99.90      -99.90      -99.90      -99.90      -99.90      -99.90      -99.90      -99.90      -99.90      -99.90    
       -99.90      -99.90      -99.90      -99.90      -99.90      -99.90      -99.90      -99.90      -99.90      -99.90    
  38   -99.90      -99.90      -99.90      -99.90      -99.90      -99.90      -99.90      -99.90      -99.90      -99.90    
       -99.90      -99.90      -99.90      -99.90      -99.90      -99.90      -99.90      -99.90      -99.90      -99.90    
       -99.90      -99.90      -99.90      -99.90      -99.90      -99.90      -99.90      -99.90      -99.90      -99.90    
       -99.90      -99.90      -99.90      -99.90      -99.90      -99.90      -99.90      -99.90      -99.90      -99.90    
  39   -99.90      -99.90      -99.90      -99.90      -99.90      -99.90      -99.90      -99.90      -99.90      -99.90    
       -99.90      -99.90      -99.90      -99.90      -99.90      -99.90      -99.90      -99.90      -99.90      -99.90    
       -99.90      -99.90      -99.90      -99.90      -99.90      -99.90      -99.90      -99.90      -99.90      -99.90    
       -99.90      -99.90      -99.90      -99.90      -99.90      -99.90      -99.90      -99.90      -99.90      -99.90    
  40   -99.90      -99.90      -99.90      -99.90      -99.90      -99.90      -99.90      -99.90      -99.90      -99.90    
       -99.90      -99.90      -99.90      -99.90      -99.90      -99.90      -99.90      -99.90      -99.90      -99.90    
       -99.90      -99.90      -99.90      -99.90      -99.90      -99.90      -99.90      -99.90      -99.90      -99.90    
       -99.90      -99.90      -99.90      -99.90      -99.90      -99.90      -99.90      -99.90      -99.90      -99.90    
1
              HEAD IN LAYER 6 AT END OF TIME STEP 10 IN STRESS PERIOD 1
  ---------------------------------------------------------------------------

            1           2           3           4           5           6           7           8           9          10
           11          12          13          14          15          16          17          18          19          20
           21          22          23          24          25          26          27          28          29          30
           31          32          33          34          35          36          37          38          39          40
 ........................................................................................................................
   1    41.44       40.02      -99.90      -99.90      -99.90      -99.90      -99.90      -99.90      -99.90      -99.90    
       -99.90      -99.90      -99.90      -99.90      -99.90      -99.90      -99.90      -99.90      -99.90      -99.90    
       -99.90      -99.90      -99.90      -99.90      -99.90      -99.90      -99.90      -99.90      -99.90      -99.90    
       -99.90      -99.90      -99.90      -99.90      -99.90      -99.90      -99.90      -99.90      -99.90      -99.90    
   2    40.02      -99.90      -99.90      -99.90      -99.90      -99.90      -99.90      -99.90      -99.90      -99.90    
       -99.90      -99.90      -99.90      -99.90      -99.90      -99.90      -99.90      -99.90      -99.90      -99.90    
       -99.90      -99.90      -99.90      -99.90      -99.90      -99.90      -99.90      -99.90      -99.90      -99.90    
       -99.90      -99.90      -99.90      -99.90      -99.90      -99.90      -99.90      -99.90      -99.90      -99.90    
   3   -99.90      -99.90      -99.90      -99.90      -99.90      -99.90      -99.90      -99.90      -99.90      -99.90    
       -99.90      -99.90      -99.90      -99.90      -99.90      -99.90      -99.90      -99.90      -99.90      -99.90    
       -99.90      -99.90      -99.90      -99.90      -99.90      -99.90      -99.90      -99.90      -99.90      -99.90    
       -99.90      -99.90      -99.90      -99.90      -99.90      -99.90      -99.90      -99.90      -99.90      -99.90    
   4   -99.90      -99.90      -99.90      -99.90      -99.90      -99.90      -99.90      -99.90      -99.90      -99.90    
       -99.90      -99.90      -99.90      -99.90      -99.90      -99.90      -99.90      -99.90      -99.90      -99.90    
       -99.90      -99.90      -99.90      -99.90      -99.90      -99.90      -99.90      -99.90      -99.90      -99.90    
       -99.90      -99.90      -99.90      -99.90      -99.90      -99.90      -99.90      -99.90      -99.90      -99.90    
   5   -99.90      -99.90      -99.90      -99.90      -99.90      -99.90      -99.90      -99.90      -99.90      -99.90    
       -99.90      -99.90      -99.90      -99.90      -99.90      -99.90      -99.90      -99.90      -99.90      -99.90    
       -99.90      -99.90      -99.90      -99.90      -99.90      -99.90      -99.90      -99.90      -99.90      -99.90    
       -99.90      -99.90      -99.90      -99.90      -99.90      -99.90      -99.90      -99.90      -99.90      -99.90    
   6   -99.90      -99.90      -99.90      -99.90      -99.90      -99.90      -99.90      -99.90      -99.90      -99.90    
       -99.90      -99.90      -99.90      -99.90      -99.90      -99.90      -99.90      -99.90      -99.90      -99.90    
       -99.90      -99.90      -99.90      -99.90      -99.90      -99.90      -99.90      -99.90      -99.90      -99.90    
       -99.90      -99.90      -99.90      -99.90      -99.90      -99.90      -99.90      -99.90      -99.90      -99.90    
   7   -99.90      -99.90      -99.90      -99.90      -99.90      -99.90      -99.90      -99.90      -99.90      -99.90    
       -99.90      -99.90      -99.90      -99.90      -99.90      -99.90      -99.90      -99.90      -99.90      -99.90    
       -99.90      -99.90      -99.90      -99.90      -99.90      -99.90      -99.90      -99.90      -99.90      -99.90    
       -99.90      -99.90      -99.90      -99.90      -99.90      -99.90      -99.90      -99.90      -99.90      -99.90    
   8   -99.90      -99.90      -99.90      -99.90      -99.90      -99.90      -99.90      -99.90      -99.90      -99.90    
       -99.90      -99.90      -99.90      -99.90      -99.90      -99.90      -99.90      -99.90      -99.90      -99.90    
       -99.90      -99.90      -99.90      -99.90      -99.90      -99.90      -99.90      -99.90      -99.90      -99.90    
       -99.90      -99.90      -99.90      -99.90      -99.90      -99.90      -99.90      -99.90      -99.90      -99.90    
   9   -99.90      -99.90      -99.90      -99.90      -99.90      -99.90      -99.90      -99.90      -99.90      -99.90    
       -99.90      -99.90      -99.90      -99.90      -99.90      -99.90      -99.90      -99.90      -99.90      -99.90    
       -99.90      -99.90      -99.90      -99.90      -99.90      -99.90      -99.90      -99.90      -99.90      -99.90    
       -99.90      -99.90      -99.90      -99.90      -99.90      -99.90      -99.90      -99.90      -99.90      -99.90    
  10   -99.90      -99.90      -99.90      -99.90      -99.90      -99.90      -99.90      -99.90      -99.90      -99.90    
       -99.90      -99.90      -99.90      -99.90      -99.90      -99.90      -99.90      -99.90      -99.90      -99.90    
       -99.90      -99.90      -99.90      -99.90      -99.90      -99.90      -99.90      -99.90      -99.90      -99.90    
       -99.90      -99.90      -99.90      -99.90      -99.90      -99.90      -99.90      -99.90      -99.90      -99.90    
  11   -99.90      -99.90      -99.90      -99.90      -99.90      -99.90      -99.90      -99.90      -99.90      -99.90    
       -99.90      -99.90      -99.90      -99.90      -99.90      -99.90      -99.90      -99.90      -99.90      -99.90    
       -99.90      -99.90      -99.90      -99.90      -99.90      -99.90      -99.90      -99.90      -99.90      -99.90    
       -99.90      -99.90      -99.90      -99.90      -99.90      -99.90      -99.90      -99.90      -99.90      -99.90    
  12   -99.90      -99.90      -99.90      -99.90      -99.90      -99.90      -99.90      -99.90      -99.90      -99.90    
       -99.90      -99.90      -99.90      -99.90      -99.90      -99.90      -99.90      -99.90      -99.90      -99.90    
       -99.90      -99.90      -99.90      -99.90      -99.90      -99.90      -99.90      -99.90      -99.90      -99.90    
       -99.90      -99.90      -99.90      -99.90      -99.90      -99.90      -99.90      -99.90      -99.90      -99.90    
  13   -99.90      -99.90      -99.90      -99.90      -99.90      -99.90      -99.90      -99.90      -99.90      -99.90    
       -99.90      -99.90      -99.90      -99.90      -99.90      -99.90      -99.90      -99.90      -99.90      -99.90    
       -99.90      -99.90      -99.90      -99.90      -99.90      -99.90      -99.90      -99.90      -99.90      -99.90    
       -99.90      -99.90      -99.90      -99.90      -99.90      -99.90      -99.90      -99.90      -99.90      -99.90    
  14   -99.90      -99.90      -99.90      -99.90      -99.90      -99.90      -99.90      -99.90      -99.90      -99.90    
       -99.90      -99.90      -99.90      -99.90      -99.90      -99.90      -99.90      -99.90      -99.90      -99.90    
       -99.90      -99.90      -99.90      -99.90      -99.90      -99.90      -99.90      -99.90      -99.90      -99.90    
       -99.90      -99.90      -99.90      -99.90      -99.90      -99.90      -99.90      -99.90      -99.90      -99.90    
  15   -99.90      -99.90      -99.90      -99.90      -99.90      -99.90      -99.90      -99.90      -99.90      -99.90    
       -99.90      -99.90      -99.90      -99.90      -99.90      -99.90      -99.90      -99.90      -99.90      -99.90    
       -99.90      -99.90      -99.90      -99.90      -99.90      -99.90      -99.90      -99.90      -99.90      -99.90    
       -99.90      -99.90      -99.90      -99.90      -99.90      -99.90      -99.90      -99.90      -99.90      -99.90    
  16   -99.90      -99.90      -99.90      -99.90      -99.90      -99.90      -99.90      -99.90      -99.90      -99.90    
       -99.90      -99.90      -99.90      -99.90      -99.90      -99.90      -99.90      -99.90      -99.90      -99.90    
       -99.90      -99.90      -99.90      -99.90      -99.90      -99.90      -99.90      -99.90      -99.90      -99.90    
       -99.90      -99.90      -99.90      -99.90      -99.90      -99.90      -99.90      -99.90      -99.90      -99.90    
  17   -99.90      -99.90      -99.90      -99.90      -99.90      -99.90      -99.90      -99.90      -99.90      -99.90    
       -99.90      -99.90      -99.90      -99.90      -99.90      -99.90      -99.90      -99.90      -99.90      -99.90    
       -99.90      -99.90      -99.90      -99.90      -99.90      -99.90      -99.90      -99.90      -99.90      -99.90    
       -99.90      -99.90      -99.90      -99.90      -99.90      -99.90      -99.90      -99.90      -99.90      -99.90    
  18   -99.90      -99.90      -99.90      -99.90      -99.90      -99.90      -99.90      -99.90      -99.90      -99.90    
       -99.90      -99.90      -99.90      -99.90      -99.90      -99.90      -99.90      -99.90      -99.90      -99.90    
       -99.90      -99.90      -99.90      -99.90      -99.90      -99.90      -99.90      -99.90      -99.90      -99.90    
       -99.90      -99.90      -99.90      -99.90      -99.90      -99.90      -99.90      -99.90      -99.90      -99.90    
  19   -99.90      -99.90      -99.90      -99.90      -99.90      -99.90      -99.90      -99.90      -99.90      -99.90    
       -99.90      -99.90      -99.90      -99.90      -99.90      -99.90      -99.90      -99.90      -99.90      -99.90    
       -99.90      -99.90      -99.90      -99.90      -99.90      -99.90      -99.90      -99.90      -99.90      -99.90    
       -99.90      -99.90      -99.90      -99.90      -99.90      -99.90      -99.90      -99.90      -99.90      -99.90    
  20   -99.90      -99.90      -99.90      -99.90      -99.90      -99.90      -99.90      -99.90      -99.90      -99.90    
       -99.90      -99.90      -99.90      -99.90      -99.90      -99.90      -99.90      -99.90      -99.90      -99.90    
       -99.90      -99.90      -99.90      -99.90      -99.90      -99.90      -99.90      -99.90      -99.90      -99.90    
       -99.90      -99.90      -99.90      -99.90      -99.90      -99.90      -99.90      -99.90      -99.90      -99.90    
  21   -99.90      -99.90      -99.90      -99.90      -99.90      -99.90      -99.90      -99.90      -99.90      -99.90    
       -99.90      -99.90      -99.90      -99.90      -99.90      -99.90      -99.90      -99.90      -99.90      -99.90    
       -99.90      -99.90      -99.90      -99.90      -99.90      -99.90      -99.90      -99.90      -99.90      -99.90    
       -99.90      -99.90      -99.90      -99.90      -99.90      -99.90      -99.90      -99.90      -99.90      -99.90    
  22   -99.90      -99.90      -99.90      -99.90      -99.90      -99.90      -99.90      -99.90      -99.90      -99.90    
       -99.90      -99.90      -99.90      -99.90      -99.90      -99.90      -99.90      -99.90      -99.90      -99.90    
       -99.90      -99.90      -99.90      -99.90      -99.90      -99.90      -99.90      -99.90      -99.90      -99.90    
       -99.90      -99.90      -99.90      -99.90      -99.90      -99.90      -99.90      -99.90      -99.90      -99.90    
  23   -99.90      -99.90      -99.90      -99.90      -99.90      -99.90      -99.90      -99.90      -99.90      -99.90    
       -99.90      -99.90      -99.90      -99.90      -99.90      -99.90      -99.90      -99.90      -99.90      -99.90    
       -99.90      -99.90      -99.90      -99.90      -99.90      -99.90      -99.90      -99.90      -99.90      -99.90    
       -99.90      -99.90      -99.90      -99.90      -99.90      -99.90      -99.90      -99.90      -99.90      -99.90    
  24   -99.90      -99.90      -99.90      -99.90      -99.90      -99.90      -99.90      -99.90      -99.90      -99.90    
       -99.90      -99.90      -99.90      -99.90      -99.90      -99.90      -99.90      -99.90      -99.90      -99.90    
       -99.90      -99.90      -99.90      -99.90      -99.90      -99.90      -99.90      -99.90      -99.90      -99.90    
       -99.90      -99.90      -99.90      -99.90      -99.90      -99.90      -99.90      -99.90      -99.90      -99.90    
  25   -99.90      -99.90      -99.90      -99.90      -99.90      -99.90      -99.90      -99.90      -99.90      -99.90    
       -99.90      -99.90      -99.90      -99.90      -99.90      -99.90      -99.90      -99.90      -99.90      -99.90    
       -99.90      -99.90      -99.90      -99.90      -99.90      -99.90      -99.90      -99.90      -99.90      -99.90    
       -99.90      -99.90      -99.90      -99.90      -99.90      -99.90      -99.90      -99.90      -99.90      -99.90    
  26   -99.90      -99.90      -99.90      -99.90      -99.90      -99.90      -99.90      -99.90      -99.90      -99.90    
       -99.90      -99.90      -99.90      -99.90      -99.90      -99.90      -99.90      -99.90      -99.90      -99.90    
       -99.90      -99.90      -99.90      -99.90      -99.90      -99.90      -99.90      -99.90      -99.90      -99.90    
       -99.90      -99.90      -99.90      -99.90      -99.90      -99.90      -99.90      -99.90      -99.90      -99.90    
  27   -99.90      -99.90      -99.90      -99.90      -99.90      -99.90      -99.90      -99.90      -99.90      -99.90    
       -99.90      -99.90      -99.90      -99.90      -99.90      -99.90      -99.90      -99.90      -99.90      -99.90    
       -99.90      -99.90      -99.90      -99.90      -99.90      -99.90      -99.90      -99.90      -99.90      -99.90    
       -99.90      -99.90      -99.90      -99.90      -99.90      -99.90      -99.90      -99.90      -99.90      -99.90    
  28   -99.90      -99.90      -99.90      -99.90      -99.90      -99.90      -99.90      -99.90      -99.90      -99.90    
       -99.90      -99.90      -99.90      -99.90      -99.90      -99.90      -99.90      -99.90      -99.90      -99.90    
       -99.90      -99.90      -99.90      -99.90      -99.90      -99.90      -99.90      -99.90      -99.90      -99.90    
       -99.90      -99.90      -99.90      -99.90      -99.90      -99.90      -99.90      -99.90      -99.90      -99.90    
  29   -99.90      -99.90      -99.90      -99.90      -99.90      -99.90      -99.90      -99.90      -99.90      -99.90    
       -99.90      -99.90      -99.90      -99.90      -99.90      -99.90      -99.90      -99.90      -99.90      -99.90    
       -99.90      -99.90      -99.90      -99.90      -99.90      -99.90      -99.90      -99.90      -99.90      -99.90    
       -99.90      -99.90      -99.90      -99.90      -99.90      -99.90      -99.90      -99.90      -99.90      -99.90    
  30   -99.90      -99.90      -99.90      -99.90      -99.90      -99.90      -99.90      -99.90      -99.90      -99.90    
       -99.90      -99.90      -99.90      -99.90      -99.90      -99.90      -99.90      -99.90      -99.90      -99.90    
       -99.90      -99.90      -99.90      -99.90      -99.90      -99.90      -99.90      -99.90      -99.90      -99.90    
       -99.90      -99.90      -99.90      -99.90      -99.90      -99.90      -99.90      -99.90      -99.90      -99.90    
  31   -99.90      -99.90      -99.90      -99.90      -99.90      -99.90      -99.90      -99.90      -99.90      -99.90    
       -99.90      -99.90      -99.90      -99.90      -99.90      -99.90      -99.90      -99.90      -99.90      -99.90    
       -99.90      -99.90      -99.90      -99.90      -99.90      -99.90      -99.90      -99.90      -99.90      -99.90    
       -99.90      -99.90      -99.90      -99.90      -99.90      -99.90      -99.90      -99.90      -99.90      -99.90    
  32   -99.90      -99.90      -99.90      -99.90      -99.90      -99.90      -99.90      -99.90      -99.90      -99.90    
       -99.90      -99.90      -99.90      -99.90      -99.90      -99.90      -99.90      -99.90      -99.90      -99.90    
       -99.90      -99.90      -99.90      -99.90      -99.90      -99.90      -99.90      -99.90      -99.90      -99.90    
       -99.90      -99.90      -99.90      -99.90      -99.90      -99.90      -99.90      -99.90      -99.90      -99.90    
  33   -99.90      -99.90      -99.90      -99.90      -99.90      -99.90      -99.90      -99.90      -99.90      -99.90    
       -99.90      -99.90      -99.90      -99.90      -99.90      -99.90      -99.90      -99.90      -99.90      -99.90    
       -99.90      -99.90      -99.90      -99.90      -99.90      -99.90      -99.90      -99.90      -99.90      -99.90    
       -99.90      -99.90      -99.90      -99.90      -99.90      -99.90      -99.90      -99.90      -99.90      -99.90    
  34   -99.90      -99.90      -99.90      -99.90      -99.90      -99.90      -99.90      -99.90      -99.90      -99.90    
       -99.90      -99.90      -99.90      -99.90      -99.90      -99.90      -99.90      -99.90      -99.90      -99.90    
       -99.90      -99.90      -99.90      -99.90      -99.90      -99.90      -99.90      -99.90      -99.90      -99.90    
       -99.90      -99.90      -99.90      -99.90      -99.90      -99.90      -99.90      -99.90      -99.90      -99.90    
  35   -99.90      -99.90      -99.90      -99.90      -99.90      -99.90      -99.90      -99.90      -99.90      -99.90    
       -99.90      -99.90      -99.90      -99.90      -99.90      -99.90      -99.90      -99.90      -99.90      -99.90    
       -99.90      -99.90      -99.90      -99.90      -99.90      -99.90      -99.90      -99.90      -99.90      -99.90    
       -99.90      -99.90      -99.90      -99.90      -99.90      -99.90      -99.90      -99.90      -99.90      -99.90    
  36   -99.90      -99.90      -99.90      -99.90      -99.90      -99.90      -99.90      -99.90      -99.90      -99.90    
       -99.90      -99.90      -99.90      -99.90      -99.90      -99.90      -99.90      -99.90      -99.90      -99.90    
       -99.90      -99.90      -99.90      -99.90      -99.90      -99.90      -99.90      -99.90      -99.90      -99.90    
       -99.90      -99.90      -99.90      -99.90      -99.90      -99.90      -99.90      -99.90      -99.90      -99.90    
  37   -99.90      -99.90      -99.90      -99.90      -99.90      -99.90      -99.90      -99.90      -99.90      -99.90    
       -99.90      -99.90      -99.90      -99.90      -99.90      -99.90      -99.90      -99.90      -99.90      -99.90    
       -99.90      -99.90      -99.90      -99.90      -99.90      -99.90      -99.90      -99.90      -99.90      -99.90    
       -99.90      -99.90      -99.90      -99.90      -99.90      -99.90      -99.90      -99.90      -99.90      -99.90    
  38   -99.90      -99.90      -99.90      -99.90      -99.90      -99.90      -99.90      -99.90      -99.90      -99.90    
       -99.90      -99.90      -99.90      -99.90      -99.90      -99.90      -99.90      -99.90      -99.90      -99.90    
       -99.90      -99.90      -99.90      -99.90      -99.90      -99.90      -99.90      -99.90      -99.90      -99.90    
       -99.90      -99.90      -99.90      -99.90      -99.90      -99.90      -99.90      -99.90      -99.90      -99.90    
  39   -99.90      -99.90      -99.90      -99.90      -99.90      -99.90      -99.90      -99.90      -99.90      -99.90    
       -99.90      -99.90      -99.90      -99.90      -99.90      -99.90      -99.90      -99.90      -99.90      -99.90    
       -99.90      -99.90      -99.90      -99.90      -99.90      -99.90      -99.90      -99.90      -99.90      -99.90    
       -99.90      -99.90      -99.90      -99.90      -99.90      -99.90      -99.90      -99.90      -99.90      -99.90    
  40   -99.90      -99.90      -99.90      -99.90      -99.90      -99.90      -99.90      -99.90      -99.90      -99.90    
       -99.90      -99.90      -99.90      -99.90      -99.90      -99.90      -99.90      -99.90      -99.90      -99.90    
       -99.90      -99.90      -99.90      -99.90      -99.90      -99.90      -99.90      -99.90      -99.90      -99.90    
       -99.90      -99.90      -99.90      -99.90      -99.90      -99.90      -99.90      -99.90      -99.90      -99.90    
1
              HEAD IN LAYER 7 AT END OF TIME STEP 10 IN STRESS PERIOD 1
  ---------------------------------------------------------------------------

            1           2           3           4           5           6           7           8           9          10
           11          12          13          14          15          16          17          18          19          20
           21          22          23          24          25          26          27          28          29          30
           31          32          33          34          35          36          37          38          39          40
 ........................................................................................................................
   1    40.60       39.01      -99.90      -99.90      -99.90      -99.90      -99.90      -99.90      -99.90      -99.90    
       -99.90      -99.90      -99.90      -99.90      -99.90      -99.90      -99.90      -99.90      -99.90      -99.90    
       -99.90      -99.90      -99.90      -99.90      -99.90      -99.90      -99.90      -99.90      -99.90      -99.90    
       -99.90      -99.90      -99.90      -99.90      -99.90      -99.90      -99.90      -99.90      -99.90      -99.90    
   2    39.01       37.56      -99.90      -99.90      -99.90      -99.90      -99.90      -99.90      -99.90      -99.90    
       -99.90      -99.90      -99.90      -99.90      -99.90      -99.90      -99.90      -99.90      -99.90      -99.90    
       -99.90      -99.90      -99.90      -99.90      -99.90      -99.90      -99.90      -99.90      -99.90      -99.90    
       -99.90      -99.90      -99.90      -99.90      -99.90      -99.90      -99.90      -99.90      -99.90      -99.90    
   3   -99.90      -99.90      -99.90      -99.90      -99.90      -99.90      -99.90      -99.90      -99.90      -99.90    
       -99.90      -99.90      -99.90      -99.90      -99.90      -99.90      -99.90      -99.90      -99.90      -99.90    
       -99.90      -99.90      -99.90      -99.90      -99.90      -99.90      -99.90      -99.90      -99.90      -99.90    
       -99.90      -99.90      -99.90      -99.90      -99.90      -99.90      -99.90      -99.90      -99.90      -99.90    
   4   -99.90      -99.90      -99.90      -99.90      -99.90      -99.90      -99.90      -99.90      -99.90      -99.90    
       -99.90      -99.90      -99.90      -99.90      -99.90      -99.90      -99.90      -99.90      -99.90      -99.90    
       -99.90      -99.90      -99.90      -99.90      -99.90      -99.90      -99.90      -99.90      -99.90      -99.90    
       -99.90      -99.90      -99.90      -99.90      -99.90      -99.90      -99.90      -99.90      -99.90      -99.90    
   5   -99.90      -99.90      -99.90      -99.90      -99.90      -99.90      -99.90      -99.90      -99.90      -99.90    
       -99.90      -99.90      -99.90      -99.90      -99.90      -99.90      -99.90      -99.90      -99.90      -99.90    
       -99.90      -99.90      -99.90      -99.90      -99.90      -99.90      -99.90      -99.90      -99.90      -99.90    
       -99.90      -99.90      -99.90      -99.90      -99.90      -99.90      -99.90      -99.90      -99.90      -99.90    
   6   -99.90      -99.90      -99.90      -99.90      -99.90      -99.90      -99.90      -99.90      -99.90      -99.90    
       -99.90      -99.90      -99.90      -99.90      -99.90      -99.90      -99.90      -99.90      -99.90      -99.90    
       -99.90      -99.90      -99.90      -99.90      -99.90      -99.90      -99.90      -99.90      -99.90      -99.90    
       -99.90      -99.90      -99.90      -99.90      -99.90      -99.90      -99.90      -99.90      -99.90      -99.90    
   7   -99.90      -99.90      -99.90      -99.90      -99.90      -99.90      -99.90      -99.90      -99.90      -99.90    
       -99.90      -99.90      -99.90      -99.90      -99.90      -99.90      -99.90      -99.90      -99.90      -99.90    
       -99.90      -99.90      -99.90      -99.90      -99.90      -99.90      -99.90      -99.90      -99.90      -99.90    
       -99.90      -99.90      -99.90      -99.90      -99.90      -99.90      -99.90      -99.90      -99.90      -99.90    
   8   -99.90      -99.90      -99.90      -99.90      -99.90      -99.90      -99.90      -99.90      -99.90      -99.90    
       -99.90      -99.90      -99.90      -99.90      -99.90      -99.90      -99.90      -99.90      -99.90      -99.90    
       -99.90      -99.90      -99.90      -99.90      -99.90      -99.90      -99.90      -99.90      -99.90      -99.90    
       -99.90      -99.90      -99.90      -99.90      -99.90      -99.90      -99.90      -99.90      -99.90      -99.90    
   9   -99.90      -99.90      -99.90      -99.90      -99.90      -99.90      -99.90      -99.90      -99.90      -99.90    
       -99.90      -99.90      -99.90      -99.90      -99.90      -99.90      -99.90      -99.90      -99.90      -99.90    
       -99.90      -99.90      -99.90      -99.90      -99.90      -99.90      -99.90      -99.90      -99.90      -99.90    
       -99.90      -99.90      -99.90      -99.90      -99.90      -99.90      -99.90      -99.90      -99.90      -99.90    
  10   -99.90      -99.90      -99.90      -99.90      -99.90      -99.90      -99.90      -99.90      -99.90      -99.90    
       -99.90      -99.90      -99.90      -99.90      -99.90      -99.90      -99.90      -99.90      -99.90      -99.90    
       -99.90      -99.90      -99.90      -99.90      -99.90      -99.90      -99.90      -99.90      -99.90      -99.90    
       -99.90      -99.90      -99.90      -99.90      -99.90      -99.90      -99.90      -99.90      -99.90      -99.90    
  11   -99.90      -99.90      -99.90      -99.90      -99.90      -99.90      -99.90      -99.90      -99.90      -99.90    
       -99.90      -99.90      -99.90      -99.90      -99.90      -99.90      -99.90      -99.90      -99.90      -99.90    
       -99.90      -99.90      -99.90      -99.90      -99.90      -99.90      -99.90      -99.90      -99.90      -99.90    
       -99.90      -99.90      -99.90      -99.90      -99.90      -99.90      -99.90      -99.90      -99.90      -99.90    
  12   -99.90      -99.90      -99.90      -99.90      -99.90      -99.90      -99.90      -99.90      -99.90      -99.90    
       -99.90      -99.90      -99.90      -99.90      -99.90      -99.90      -99.90      -99.90      -99.90      -99.90    
       -99.90      -99.90      -99.90      -99.90      -99.90      -99.90      -99.90      -99.90      -99.90      -99.90    
       -99.90      -99.90      -99.90      -99.90      -99.90      -99.90      -99.90      -99.90      -99.90      -99.90    
  13   -99.90      -99.90      -99.90      -99.90      -99.90      -99.90      -99.90      -99.90      -99.90      -99.90    
       -99.90      -99.90      -99.90      -99.90      -99.90      -99.90      -99.90      -99.90      -99.90      -99.90    
       -99.90      -99.90      -99.90      -99.90      -99.90      -99.90      -99.90      -99.90      -99.90      -99.90    
       -99.90      -99.90      -99.90      -99.90      -99.90      -99.90      -99.90      -99.90      -99.90      -99.90    
  14   -99.90      -99.90      -99.90      -99.90      -99.90      -99.90      -99.90      -99.90      -99.90      -99.90    
       -99.90      -99.90      -99.90      -99.90      -99.90      -99.90      -99.90      -99.90      -99.90      -99.90    
       -99.90      -99.90      -99.90      -99.90      -99.90      -99.90      -99.90      -99.90      -99.90      -99.90    
       -99.90      -99.90      -99.90      -99.90      -99.90      -99.90      -99.90      -99.90      -99.90      -99.90    
  15   -99.90      -99.90      -99.90      -99.90      -99.90      -99.90      -99.90      -99.90      -99.90      -99.90    
       -99.90      -99.90      -99.90      -99.90      -99.90      -99.90      -99.90      -99.90      -99.90      -99.90    
       -99.90      -99.90      -99.90      -99.90      -99.90      -99.90      -99.90      -99.90      -99.90      -99.90    
       -99.90      -99.90      -99.90      -99.90      -99.90      -99.90      -99.90      -99.90      -99.90      -99.90    
  16   -99.90      -99.90      -99.90      -99.90      -99.90      -99.90      -99.90      -99.90      -99.90      -99.90    
       -99.90      -99.90      -99.90      -99.90      -99.90      -99.90      -99.90      -99.90      -99.90      -99.90    
       -99.90      -99.90      -99.90      -99.90      -99.90      -99.90      -99.90      -99.90      -99.90      -99.90    
       -99.90      -99.90      -99.90      -99.90      -99.90      -99.90      -99.90      -99.90      -99.90      -99.90    
  17   -99.90      -99.90      -99.90      -99.90      -99.90      -99.90      -99.90      -99.90      -99.90      -99.90    
       -99.90      -99.90      -99.90      -99.90      -99.90      -99.90      -99.90      -99.90      -99.90      -99.90    
       -99.90      -99.90      -99.90      -99.90      -99.90      -99.90      -99.90      -99.90      -99.90      -99.90    
       -99.90      -99.90      -99.90      -99.90      -99.90      -99.90      -99.90      -99.90      -99.90      -99.90    
  18   -99.90      -99.90      -99.90      -99.90      -99.90      -99.90      -99.90      -99.90      -99.90      -99.90    
       -99.90      -99.90      -99.90      -99.90      -99.90      -99.90      -99.90      -99.90      -99.90      -99.90    
       -99.90      -99.90      -99.90      -99.90      -99.90      -99.90      -99.90      -99.90      -99.90      -99.90    
       -99.90      -99.90      -99.90      -99.90      -99.90      -99.90      -99.90      -99.90      -99.90      -99.90    
  19   -99.90      -99.90      -99.90      -99.90      -99.90      -99.90      -99.90      -99.90      -99.90      -99.90    
       -99.90      -99.90      -99.90      -99.90      -99.90      -99.90      -99.90      -99.90      -99.90      -99.90    
       -99.90      -99.90      -99.90      -99.90      -99.90      -99.90      -99.90      -99.90      -99.90      -99.90    
       -99.90      -99.90      -99.90      -99.90      -99.90      -99.90      -99.90      -99.90      -99.90      -99.90    
  20   -99.90      -99.90      -99.90      -99.90      -99.90      -99.90      -99.90      -99.90      -99.90      -99.90    
       -99.90      -99.90      -99.90      -99.90      -99.90      -99.90      -99.90      -99.90      -99.90      -99.90    
       -99.90      -99.90      -99.90      -99.90      -99.90      -99.90      -99.90      -99.90      -99.90      -99.90    
       -99.90      -99.90      -99.90      -99.90      -99.90      -99.90      -99.90      -99.90      -99.90      -99.90    
  21   -99.90      -99.90      -99.90      -99.90      -99.90      -99.90      -99.90      -99.90      -99.90      -99.90    
       -99.90      -99.90      -99.90      -99.90      -99.90      -99.90      -99.90      -99.90      -99.90      -99.90    
       -99.90      -99.90      -99.90      -99.90      -99.90      -99.90      -99.90      -99.90      -99.90      -99.90    
       -99.90      -99.90      -99.90      -99.90      -99.90      -99.90      -99.90      -99.90      -99.90      -99.90    
  22   -99.90      -99.90      -99.90      -99.90      -99.90      -99.90      -99.90      -99.90      -99.90      -99.90    
       -99.90      -99.90      -99.90      -99.90      -99.90      -99.90      -99.90      -99.90      -99.90      -99.90    
       -99.90      -99.90      -99.90      -99.90      -99.90      -99.90      -99.90      -99.90      -99.90      -99.90    
       -99.90      -99.90      -99.90      -99.90      -99.90      -99.90      -99.90      -99.90      -99.90      -99.90    
  23   -99.90      -99.90      -99.90      -99.90      -99.90      -99.90      -99.90      -99.90      -99.90      -99.90    
       -99.90      -99.90      -99.90      -99.90      -99.90      -99.90      -99.90      -99.90      -99.90      -99.90    
       -99.90      -99.90      -99.90      -99.90      -99.90      -99.90      -99.90      -99.90      -99.90      -99.90    
       -99.90      -99.90      -99.90      -99.90      -99.90      -99.90      -99.90      -99.90      -99.90      -99.90    
  24   -99.90      -99.90      -99.90      -99.90      -99.90      -99.90      -99.90      -99.90      -99.90      -99.90    
       -99.90      -99.90      -99.90      -99.90      -99.90      -99.90      -99.90      -99.90      -99.90      -99.90    
       -99.90      -99.90      -99.90      -99.90      -99.90      -99.90      -99.90      -99.90      -99.90      -99.90    
       -99.90      -99.90      -99.90      -99.90      -99.90      -99.90      -99.90      -99.90      -99.90      -99.90    
  25   -99.90      -99.90      -99.90      -99.90      -99.90      -99.90      -99.90      -99.90      -99.90      -99.90    
       -99.90      -99.90      -99.90      -99.90      -99.90      -99.90      -99.90      -99.90      -99.90      -99.90    
       -99.90      -99.90      -99.90      -99.90      -99.90      -99.90      -99.90      -99.90      -99.90      -99.90    
       -99.90      -99.90      -99.90      -99.90      -99.90      -99.90      -99.90      -99.90      -99.90      -99.90    
  26   -99.90      -99.90      -99.90      -99.90      -99.90      -99.90      -99.90      -99.90      -99.90      -99.90    
       -99.90      -99.90      -99.90      -99.90      -99.90      -99.90      -99.90      -99.90      -99.90      -99.90    
       -99.90      -99.90      -99.90      -99.90      -99.90      -99.90      -99.90      -99.90      -99.90      -99.90    
       -99.90      -99.90      -99.90      -99.90      -99.90      -99.90      -99.90      -99.90      -99.90      -99.90    
  27   -99.90      -99.90      -99.90      -99.90      -99.90      -99.90      -99.90      -99.90      -99.90      -99.90    
       -99.90      -99.90      -99.90      -99.90      -99.90      -99.90      -99.90      -99.90      -99.90      -99.90    
       -99.90      -99.90      -99.90      -99.90      -99.90      -99.90      -99.90      -99.90      -99.90      -99.90    
       -99.90      -99.90      -99.90      -99.90      -99.90      -99.90      -99.90      -99.90      -99.90      -99.90    
  28   -99.90      -99.90      -99.90      -99.90      -99.90      -99.90      -99.90      -99.90      -99.90      -99.90    
       -99.90      -99.90      -99.90      -99.90      -99.90      -99.90      -99.90      -99.90      -99.90      -99.90    
       -99.90      -99.90      -99.90      -99.90      -99.90      -99.90      -99.90      -99.90      -99.90      -99.90    
       -99.90      -99.90      -99.90      -99.90      -99.90      -99.90      -99.90      -99.90      -99.90      -99.90    
  29   -99.90      -99.90      -99.90      -99.90      -99.90      -99.90      -99.90      -99.90      -99.90      -99.90    
       -99.90      -99.90      -99.90      -99.90      -99.90      -99.90      -99.90      -99.90      -99.90      -99.90    
       -99.90      -99.90      -99.90      -99.90      -99.90      -99.90      -99.90      -99.90      -99.90      -99.90    
       -99.90      -99.90      -99.90      -99.90      -99.90      -99.90      -99.90      -99.90      -99.90      -99.90    
  30   -99.90      -99.90      -99.90      -99.90      -99.90      -99.90      -99.90      -99.90      -99.90      -99.90    
       -99.90      -99.90      -99.90      -99.90      -99.90      -99.90      -99.90      -99.90      -99.90      -99.90    
       -99.90      -99.90      -99.90      -99.90      -99.90      -99.90      -99.90      -99.90      -99.90      -99.90    
       -99.90      -99.90      -99.90      -99.90      -99.90      -99.90      -99.90      -99.90      -99.90      -99.90    
  31   -99.90      -99.90      -99.90      -99.90      -99.90      -99.90      -99.90      -99.90      -99.90      -99.90    
       -99.90      -99.90      -99.90      -99.90      -99.90      -99.90      -99.90      -99.90      -99.90      -99.90    
       -99.90      -99.90      -99.90      -99.90      -99.90      -99.90      -99.90      -99.90      -99.90      -99.90    
       -99.90      -99.90      -99.90      -99.90      -99.90      -99.90      -99.90      -99.90      -99.90      -99.90    
  32   -99.90      -99.90      -99.90      -99.90      -99.90      -99.90      -99.90      -99.90      -99.90      -99.90    
       -99.90      -99.90      -99.90      -99.90      -99.90      -99.90      -99.90      -99.90      -99.90      -99.90    
       -99.90      -99.90      -99.90      -99.90      -99.90      -99.90      -99.90      -99.90      -99.90      -99.90    
       -99.90      -99.90      -99.90      -99.90      -99.90      -99.90      -99.90      -99.90      -99.90      -99.90    
  33   -99.90      -99.90      -99.90      -99.90      -99.90      -99.90      -99.90      -99.90      -99.90      -99.90    
       -99.90      -99.90      -99.90      -99.90      -99.90      -99.90      -99.90      -99.90      -99.90      -99.90    
       -99.90      -99.90      -99.90      -99.90      -99.90      -99.90      -99.90      -99.90      -99.90      -99.90    
       -99.90      -99.90      -99.90      -99.90      -99.90      -99.90      -99.90      -99.90      -99.90      -99.90    
  34   -99.90      -99.90      -99.90      -99.90      -99.90      -99.90      -99.90      -99.90      -99.90      -99.90    
       -99.90      -99.90      -99.90      -99.90      -99.90      -99.90      -99.90      -99.90      -99.90      -99.90    
       -99.90      -99.90      -99.90      -99.90      -99.90      -99.90      -99.90      -99.90      -99.90      -99.90    
       -99.90      -99.90      -99.90      -99.90      -99.90      -99.90      -99.90      -99.90      -99.90      -99.90    
  35   -99.90      -99.90      -99.90      -99.90      -99.90      -99.90      -99.90      -99.90      -99.90      -99.90    
       -99.90      -99.90      -99.90      -99.90      -99.90      -99.90      -99.90      -99.90      -99.90      -99.90    
       -99.90      -99.90      -99.90      -99.90      -99.90      -99.90      -99.90      -99.90      -99.90      -99.90    
       -99.90      -99.90      -99.90      -99.90      -99.90      -99.90      -99.90      -99.90      -99.90      -99.90    
  36   -99.90      -99.90      -99.90      -99.90      -99.90      -99.90      -99.90      -99.90      -99.90      -99.90    
       -99.90      -99.90      -99.90      -99.90      -99.90      -99.90      -99.90      -99.90      -99.90      -99.90    
       -99.90      -99.90      -99.90      -99.90      -99.90      -99.90      -99.90      -99.90      -99.90      -99.90    
       -99.90      -99.90      -99.90      -99.90      -99.90      -99.90      -99.90      -99.90      -99.90      -99.90    
  37   -99.90      -99.90      -99.90      -99.90      -99.90      -99.90      -99.90      -99.90      -99.90      -99.90    
       -99.90      -99.90      -99.90      -99.90      -99.90      -99.90      -99.90      -99.90      -99.90      -99.90    
       -99.90      -99.90      -99.90      -99.90      -99.90      -99.90      -99.90      -99.90      -99.90      -99.90    
       -99.90      -99.90      -99.90      -99.90      -99.90      -99.90      -99.90      -99.90      -99.90      -99.90    
  38   -99.90      -99.90      -99.90      -99.90      -99.90      -99.90      -99.90      -99.90      -99.90      -99.90    
       -99.90      -99.90      -99.90      -99.90      -99.90      -99.90      -99.90      -99.90      -99.90      -99.90    
       -99.90      -99.90      -99.90      -99.90      -99.90      -99.90      -99.90      -99.90      -99.90      -99.90    
       -99.90      -99.90      -99.90      -99.90      -99.90      -99.90      -99.90      -99.90      -99.90      -99.90    
  39   -99.90      -99.90      -99.90      -99.90      -99.90      -99.90      -99.90      -99.90      -99.90      -99.90    
       -99.90      -99.90      -99.90      -99.90      -99.90      -99.90      -99.90      -99.90      -99.90      -99.90    
       -99.90      -99.90      -99.90      -99.90      -99.90      -99.90      -99.90      -99.90      -99.90      -99.90    
       -99.90      -99.90      -99.90      -99.90      -99.90      -99.90      -99.90      -99.90      -99.90      -99.90    
  40   -99.90      -99.90      -99.90      -99.90      -99.90      -99.90      -99.90      -99.90      -99.90      -99.90    
       -99.90      -99.90      -99.90      -99.90      -99.90      -99.90      -99.90      -99.90      -99.90      -99.90    
       -99.90      -99.90      -99.90      -99.90      -99.90      -99.90      -99.90      -99.90      -99.90      -99.90    
       -99.90      -99.90      -99.90      -99.90      -99.90      -99.90      -99.90      -99.90      -99.90      -99.90    
1
              HEAD IN LAYER 8 AT END OF TIME STEP 10 IN STRESS PERIOD 1
  ---------------------------------------------------------------------------

            1           2           3           4           5           6           7           8           9          10
           11          12          13          14          15          16          17          18          19          20
           21          22          23          24          25          26          27          28          29          30
           31          32          33          34          35          36          37          38          39          40
 ........................................................................................................................
   1    39.87       38.23       33.51       30.37      -99.90      -99.90      -99.90      -99.90      -99.90      -99.90    
       -99.90      -99.90      -99.90      -99.90      -99.90      -99.90      -99.90      -99.90      -99.90      -99.90    
       -99.90      -99.90      -99.90      -99.90      -99.90      -99.90      -99.90      -99.90      -99.90      -99.90    
       -99.90      -99.90      -99.90      -99.90      -99.90      -99.90      -99.90      -99.90      -99.90      -99.90    
   2    38.23       36.76       32.46      -99.90      -99.90      -99.90      -99.90      -99.90      -99.90      -99.90    
       -99.90      -99.90      -99.90      -99.90      -99.90      -99.90      -99.90      -99.90      -99.90      -99.90    
       -99.90      -99.90      -99.90      -99.90      -99.90      -99.90      -99.90      -99.90      -99.90      -99.90    
       -99.90      -99.90      -99.90      -99.90      -99.90      -99.90      -99.90      -99.90      -99.90      -99.90    
   3    33.51       32.46       30.40      -99.90      -99.90      -99.90      -99.90      -99.90      -99.90      -99.90    
       -99.90      -99.90      -99.90      -99.90      -99.90      -99.90      -99.90      -99.90      -99.90      -99.90    
       -99.90      -99.90      -99.90      -99.90      -99.90      -99.90      -99.90      -99.90      -99.90      -99.90    
       -99.90      -99.90      -99.90      -99.90      -99.90      -99.90      -99.90      -99.90      -99.90      -99.90    
   4    30.37      -99.90      -99.90      -99.90      -99.90      -99.90      -99.90      -99.90      -99.90      -99.90    
       -99.90      -99.90      -99.90      -99.90      -99.90      -99.90      -99.90      -99.90      -99.90      -99.90    
       -99.90      -99.90      -99.90      -99.90      -99.90      -99.90      -99.90      -99.90      -99.90      -99.90    
       -99.90      -99.90      -99.90      -99.90      -99.90      -99.90      -99.90      -99.90      -99.90      -99.90    
   5   -99.90      -99.90      -99.90      -99.90      -99.90      -99.90      -99.90      -99.90      -99.90      -99.90    
       -99.90      -99.90      -99.90      -99.90      -99.90      -99.90      -99.90      -99.90      -99.90      -99.90    
       -99.90      -99.90      -99.90      -99.90      -99.90      -99.90      -99.90      -99.90      -99.90      -99.90    
       -99.90      -99.90      -99.90      -99.90      -99.90      -99.90      -99.90      -99.90      -99.90      -99.90    
   6   -99.90      -99.90      -99.90      -99.90      -99.90      -99.90      -99.90      -99.90      -99.90      -99.90    
       -99.90      -99.90      -99.90      -99.90      -99.90      -99.90      -99.90      -99.90      -99.90      -99.90    
       -99.90      -99.90      -99.90      -99.90      -99.90      -99.90      -99.90      -99.90      -99.90      -99.90    
       -99.90      -99.90      -99.90      -99.90      -99.90      -99.90      -99.90      -99.90      -99.90      -99.90    
   7   -99.90      -99.90      -99.90      -99.90      -99.90      -99.90      -99.90      -99.90      -99.90      -99.90    
       -99.90      -99.90      -99.90      -99.90      -99.90      -99.90      -99.90      -99.90      -99.90      -99.90    
       -99.90      -99.90      -99.90      -99.90      -99.90      -99.90      -99.90      -99.90      -99.90      -99.90    
       -99.90      -99.90      -99.90      -99.90      -99.90      -99.90      -99.90      -99.90      -99.90      -99.90    
   8   -99.90      -99.90      -99.90      -99.90      -99.90      -99.90      -99.90      -99.90      -99.90      -99.90    
       -99.90      -99.90      -99.90      -99.90      -99.90      -99.90      -99.90      -99.90      -99.90      -99.90    
       -99.90      -99.90      -99.90      -99.90      -99.90      -99.90      -99.90      -99.90      -99.90      -99.90    
       -99.90      -99.90      -99.90      -99.90      -99.90      -99.90      -99.90      -99.90      -99.90      -99.90    
   9   -99.90      -99.90      -99.90      -99.90      -99.90      -99.90      -99.90      -99.90      -99.90      -99.90    
       -99.90      -99.90      -99.90      -99.90      -99.90      -99.90      -99.90      -99.90      -99.90      -99.90    
       -99.90      -99.90      -99.90      -99.90      -99.90      -99.90      -99.90      -99.90      -99.90      -99.90    
       -99.90      -99.90      -99.90      -99.90      -99.90      -99.90      -99.90      -99.90      -99.90      -99.90    
  10   -99.90      -99.90      -99.90      -99.90      -99.90      -99.90      -99.90      -99.90      -99.90      -99.90    
       -99.90      -99.90      -99.90      -99.90      -99.90      -99.90      -99.90      -99.90      -99.90      -99.90    
       -99.90      -99.90      -99.90      -99.90      -99.90      -99.90      -99.90      -99.90      -99.90      -99.90    
       -99.90      -99.90      -99.90      -99.90      -99.90      -99.90      -99.90      -99.90      -99.90      -99.90    
  11   -99.90      -99.90      -99.90      -99.90      -99.90      -99.90      -99.90      -99.90      -99.90      -99.90    
       -99.90      -99.90      -99.90      -99.90      -99.90      -99.90      -99.90      -99.90      -99.90      -99.90    
       -99.90      -99.90      -99.90      -99.90      -99.90      -99.90      -99.90      -99.90      -99.90      -99.90    
       -99.90      -99.90      -99.90      -99.90      -99.90      -99.90      -99.90      -99.90      -99.90      -99.90    
  12   -99.90      -99.90      -99.90      -99.90      -99.90      -99.90      -99.90      -99.90      -99.90      -99.90    
       -99.90      -99.90      -99.90      -99.90      -99.90      -99.90      -99.90      -99.90      -99.90      -99.90    
       -99.90      -99.90      -99.90      -99.90      -99.90      -99.90      -99.90      -99.90      -99.90      -99.90    
       -99.90      -99.90      -99.90      -99.90      -99.90      -99.90      -99.90      -99.90      -99.90      -99.90    
  13   -99.90      -99.90      -99.90      -99.90      -99.90      -99.90      -99.90      -99.90      -99.90      -99.90    
       -99.90      -99.90      -99.90      -99.90      -99.90      -99.90      -99.90      -99.90      -99.90      -99.90    
       -99.90      -99.90      -99.90      -99.90      -99.90      -99.90      -99.90      -99.90      -99.90      -99.90    
       -99.90      -99.90      -99.90      -99.90      -99.90      -99.90      -99.90      -99.90      -99.90      -99.90    
  14   -99.90      -99.90      -99.90      -99.90      -99.90      -99.90      -99.90      -99.90      -99.90      -99.90    
       -99.90      -99.90      -99.90      -99.90      -99.90      -99.90      -99.90      -99.90      -99.90      -99.90    
       -99.90      -99.90      -99.90      -99.90      -99.90      -99.90      -99.90      -99.90      -99.90      -99.90    
       -99.90      -99.90      -99.90      -99.90      -99.90      -99.90      -99.90      -99.90      -99.90      -99.90    
  15   -99.90      -99.90      -99.90      -99.90      -99.90      -99.90      -99.90      -99.90      -99.90      -99.90    
       -99.90      -99.90      -99.90      -99.90      -99.90      -99.90      -99.90      -99.90      -99.90      -99.90    
       -99.90      -99.90      -99.90      -99.90      -99.90      -99.90      -99.90      -99.90      -99.90      -99.90    
       -99.90      -99.90      -99.90      -99.90      -99.90      -99.90      -99.90      -99.90      -99.90      -99.90    
  16   -99.90      -99.90      -99.90      -99.90      -99.90      -99.90      -99.90      -99.90      -99.90      -99.90    
       -99.90      -99.90      -99.90      -99.90      -99.90      -99.90      -99.90      -99.90      -99.90      -99.90    
       -99.90      -99.90      -99.90      -99.90      -99.90      -99.90      -99.90      -99.90      -99.90      -99.90    
       -99.90      -99.90      -99.90      -99.90      -99.90      -99.90      -99.90      -99.90      -99.90      -99.90    
  17   -99.90      -99.90      -99.90      -99.90      -99.90      -99.90      -99.90      -99.90      -99.90      -99.90    
       -99.90      -99.90      -99.90      -99.90      -99.90      -99.90      -99.90      -99.90      -99.90      -99.90    
       -99.90      -99.90      -99.90      -99.90      -99.90      -99.90      -99.90      -99.90      -99.90      -99.90    
       -99.90      -99.90      -99.90      -99.90      -99.90      -99.90      -99.90      -99.90      -99.90      -99.90    
  18   -99.90      -99.90      -99.90      -99.90      -99.90      -99.90      -99.90      -99.90      -99.90      -99.90    
       -99.90      -99.90      -99.90      -99.90      -99.90      -99.90      -99.90      -99.90      -99.90      -99.90    
       -99.90      -99.90      -99.90      -99.90      -99.90      -99.90      -99.90      -99.90      -99.90      -99.90    
       -99.90      -99.90      -99.90      -99.90      -99.90      -99.90      -99.90      -99.90      -99.90      -99.90    
  19   -99.90      -99.90      -99.90      -99.90      -99.90      -99.90      -99.90      -99.90      -99.90      -99.90    
       -99.90      -99.90      -99.90      -99.90      -99.90      -99.90      -99.90      -99.90      -99.90      -99.90    
       -99.90      -99.90      -99.90      -99.90      -99.90      -99.90      -99.90      -99.90      -99.90      -99.90    
       -99.90      -99.90      -99.90      -99.90      -99.90      -99.90      -99.90      -99.90      -99.90      -99.90    
  20   -99.90      -99.90      -99.90      -99.90      -99.90      -99.90      -99.90      -99.90      -99.90      -99.90    
       -99.90      -99.90      -99.90      -99.90      -99.90      -99.90      -99.90      -99.90      -99.90      -99.90    
       -99.90      -99.90      -99.90      -99.90      -99.90      -99.90      -99.90      -99.90      -99.90      -99.90    
       -99.90      -99.90      -99.90      -99.90      -99.90      -99.90      -99.90      -99.90      -99.90      -99.90    
  21   -99.90      -99.90      -99.90      -99.90      -99.90      -99.90      -99.90      -99.90      -99.90      -99.90    
       -99.90      -99.90      -99.90      -99.90      -99.90      -99.90      -99.90      -99.90      -99.90      -99.90    
       -99.90      -99.90      -99.90      -99.90      -99.90      -99.90      -99.90      -99.90      -99.90      -99.90    
       -99.90      -99.90      -99.90      -99.90      -99.90      -99.90      -99.90      -99.90      -99.90      -99.90    
  22   -99.90      -99.90      -99.90      -99.90      -99.90      -99.90      -99.90      -99.90      -99.90      -99.90    
       -99.90      -99.90      -99.90      -99.90      -99.90      -99.90      -99.90      -99.90      -99.90      -99.90    
       -99.90      -99.90      -99.90      -99.90      -99.90      -99.90      -99.90      -99.90      -99.90      -99.90    
       -99.90      -99.90      -99.90      -99.90      -99.90      -99.90      -99.90      -99.90      -99.90      -99.90    
  23   -99.90      -99.90      -99.90      -99.90      -99.90      -99.90      -99.90      -99.90      -99.90      -99.90    
       -99.90      -99.90      -99.90      -99.90      -99.90      -99.90      -99.90      -99.90      -99.90      -99.90    
       -99.90      -99.90      -99.90      -99.90      -99.90      -99.90      -99.90      -99.90      -99.90      -99.90    
       -99.90      -99.90      -99.90      -99.90      -99.90      -99.90      -99.90      -99.90      -99.90      -99.90    
  24   -99.90      -99.90      -99.90      -99.90      -99.90      -99.90      -99.90      -99.90      -99.90      -99.90    
       -99.90      -99.90      -99.90      -99.90      -99.90      -99.90      -99.90      -99.90      -99.90      -99.90    
       -99.90      -99.90      -99.90      -99.90      -99.90      -99.90      -99.90      -99.90      -99.90      -99.90    
       -99.90      -99.90      -99.90      -99.90      -99.90      -99.90      -99.90      -99.90      -99.90      -99.90    
  25   -99.90      -99.90      -99.90      -99.90      -99.90      -99.90      -99.90      -99.90      -99.90      -99.90    
       -99.90      -99.90      -99.90      -99.90      -99.90      -99.90      -99.90      -99.90      -99.90      -99.90    
       -99.90      -99.90      -99.90      -99.90      -99.90      -99.90      -99.90      -99.90      -99.90      -99.90    
       -99.90      -99.90      -99.90      -99.90      -99.90      -99.90      -99.90      -99.90      -99.90      -99.90    
  26   -99.90      -99.90      -99.90      -99.90      -99.90      -99.90      -99.90      -99.90      -99.90      -99.90    
       -99.90      -99.90      -99.90      -99.90      -99.90      -99.90      -99.90      -99.90      -99.90      -99.90    
       -99.90      -99.90      -99.90      -99.90      -99.90      -99.90      -99.90      -99.90      -99.90      -99.90    
       -99.90      -99.90      -99.90      -99.90      -99.90      -99.90      -99.90      -99.90      -99.90      -99.90    
  27   -99.90      -99.90      -99.90      -99.90      -99.90      -99.90      -99.90      -99.90      -99.90      -99.90    
       -99.90      -99.90      -99.90      -99.90      -99.90      -99.90      -99.90      -99.90      -99.90      -99.90    
       -99.90      -99.90      -99.90      -99.90      -99.90      -99.90      -99.90      -99.90      -99.90      -99.90    
       -99.90      -99.90      -99.90      -99.90      -99.90      -99.90      -99.90      -99.90      -99.90      -99.90    
  28   -99.90      -99.90      -99.90      -99.90      -99.90      -99.90      -99.90      -99.90      -99.90      -99.90    
       -99.90      -99.90      -99.90      -99.90      -99.90      -99.90      -99.90      -99.90      -99.90      -99.90    
       -99.90      -99.90      -99.90      -99.90      -99.90      -99.90      -99.90      -99.90      -99.90      -99.90    
       -99.90      -99.90      -99.90      -99.90      -99.90      -99.90      -99.90      -99.90      -99.90      -99.90    
  29   -99.90      -99.90      -99.90      -99.90      -99.90      -99.90      -99.90      -99.90      -99.90      -99.90    
       -99.90      -99.90      -99.90      -99.90      -99.90      -99.90      -99.90      -99.90      -99.90      -99.90    
       -99.90      -99.90      -99.90      -99.90      -99.90      -99.90      -99.90      -99.90      -99.90      -99.90    
       -99.90      -99.90      -99.90      -99.90      -99.90      -99.90      -99.90      -99.90      -99.90      -99.90    
  30   -99.90      -99.90      -99.90      -99.90      -99.90      -99.90      -99.90      -99.90      -99.90      -99.90    
       -99.90      -99.90      -99.90      -99.90      -99.90      -99.90      -99.90      -99.90      -99.90      -99.90    
       -99.90      -99.90      -99.90      -99.90      -99.90      -99.90      -99.90      -99.90      -99.90      -99.90    
       -99.90      -99.90      -99.90      -99.90      -99.90      -99.90      -99.90      -99.90      -99.90      -99.90    
  31   -99.90      -99.90      -99.90      -99.90      -99.90      -99.90      -99.90      -99.90      -99.90      -99.90    
       -99.90      -99.90      -99.90      -99.90      -99.90      -99.90      -99.90      -99.90      -99.90      -99.90    
       -99.90      -99.90      -99.90      -99.90      -99.90      -99.90      -99.90      -99.90      -99.90      -99.90    
       -99.90      -99.90      -99.90      -99.90      -99.90      -99.90      -99.90      -99.90      -99.90      -99.90    
  32   -99.90      -99.90      -99.90      -99.90      -99.90      -99.90      -99.90      -99.90      -99.90      -99.90    
       -99.90      -99.90      -99.90      -99.90      -99.90      -99.90      -99.90      -99.90      -99.90      -99.90    
       -99.90      -99.90      -99.90      -99.90      -99.90      -99.90      -99.90      -99.90      -99.90      -99.90    
       -99.90      -99.90      -99.90      -99.90      -99.90      -99.90      -99.90      -99.90      -99.90      -99.90    
  33   -99.90      -99.90      -99.90      -99.90      -99.90      -99.90      -99.90      -99.90      -99.90      -99.90    
       -99.90      -99.90      -99.90      -99.90      -99.90      -99.90      -99.90      -99.90      -99.90      -99.90    
       -99.90      -99.90      -99.90      -99.90      -99.90      -99.90      -99.90      -99.90      -99.90      -99.90    
       -99.90      -99.90      -99.90      -99.90      -99.90      -99.90      -99.90      -99.90      -99.90      -99.90    
  34   -99.90      -99.90      -99.90      -99.90      -99.90      -99.90      -99.90      -99.90      -99.90      -99.90    
       -99.90      -99.90      -99.90      -99.90      -99.90      -99.90      -99.90      -99.90      -99.90      -99.90    
       -99.90      -99.90      -99.90      -99.90      -99.90      -99.90      -99.90      -99.90      -99.90      -99.90    
       -99.90      -99.90      -99.90      -99.90      -99.90      -99.90      -99.90      -99.90      -99.90      -99.90    
  35   -99.90      -99.90      -99.90      -99.90      -99.90      -99.90      -99.90      -99.90      -99.90      -99.90    
       -99.90      -99.90      -99.90      -99.90      -99.90      -99.90      -99.90      -99.90      -99.90      -99.90    
       -99.90      -99.90      -99.90      -99.90      -99.90      -99.90      -99.90      -99.90      -99.90      -99.90    
       -99.90      -99.90      -99.90      -99.90      -99.90      -99.90      -99.90      -99.90      -99.90      -99.90    
  36   -99.90      -99.90      -99.90      -99.90      -99.90      -99.90      -99.90      -99.90      -99.90      -99.90    
       -99.90      -99.90      -99.90      -99.90      -99.90      -99.90      -99.90      -99.90      -99.90      -99.90    
       -99.90      -99.90      -99.90      -99.90      -99.90      -99.90      -99.90      -99.90      -99.90      -99.90    
       -99.90      -99.90      -99.90      -99.90      -99.90      -99.90      -99.90      -99.90      -99.90      -99.90    
  37   -99.90      -99.90      -99.90      -99.90      -99.90      -99.90      -99.90      -99.90      -99.90      -99.90    
       -99.90      -99.90      -99.90      -99.90      -99.90      -99.90      -99.90      -99.90      -99.90      -99.90    
       -99.90      -99.90      -99.90      -99.90      -99.90      -99.90      -99.90      -99.90      -99.90      -99.90    
       -99.90      -99.90      -99.90      -99.90      -99.90      -99.90      -99.90      -99.90      -99.90      -99.90    
  38   -99.90      -99.90      -99.90      -99.90      -99.90      -99.90      -99.90      -99.90      -99.90      -99.90    
       -99.90      -99.90      -99.90      -99.90      -99.90      -99.90      -99.90      -99.90      -99.90      -99.90    
       -99.90      -99.90      -99.90      -99.90      -99.90      -99.90      -99.90      -99.90      -99.90      -99.90    
       -99.90      -99.90      -99.90      -99.90      -99.90      -99.90      -99.90      -99.90      -99.90      -99.90    
  39   -99.90      -99.90      -99.90      -99.90      -99.90      -99.90      -99.90      -99.90      -99.90      -99.90    
       -99.90      -99.90      -99.90      -99.90      -99.90      -99.90      -99.90      -99.90      -99.90      -99.90    
       -99.90      -99.90      -99.90      -99.90      -99.90      -99.90      -99.90      -99.90      -99.90      -99.90    
       -99.90      -99.90      -99.90      -99.90      -99.90      -99.90      -99.90      -99.90      -99.90      -99.90    
  40   -99.90      -99.90      -99.90      -99.90      -99.90      -99.90      -99.90      -99.90      -99.90      -99.90    
       -99.90      -99.90      -99.90      -99.90      -99.90      -99.90      -99.90      -99.90      -99.90      -99.90    
       -99.90      -99.90      -99.90      -99.90      -99.90      -99.90      -99.90      -99.90      -99.90      -99.90    
       -99.90      -99.90      -99.90      -99.90      -99.90      -99.90      -99.90      -99.90      -99.90      -99.90    
1
              HEAD IN LAYER 9 AT END OF TIME STEP 10 IN STRESS PERIOD 1
  ---------------------------------------------------------------------------

            1           2           3           4           5           6           7           8           9          10
           11          12          13          14          15          16          17          18          19          20
           21          22          23          24          25          26          27          28          29          30
           31          32          33          34          35          36          37          38          39          40
 ........................................................................................................................
   1    39.25       37.61       33.44       30.39       28.32       26.98       26.15       25.65       25.36       25.20    
        25.11       25.06       25.03       25.02       25.01       25.00       25.00      -99.90      -99.90      -99.90    
       -99.90      -99.90      -99.90      -99.90      -99.90      -99.90      -99.90      -99.90      -99.90      -99.90    
       -99.90      -99.90      -99.90      -99.90      -99.90      -99.90      -99.90      -99.90      -99.90      -99.90    
   2    37.61       36.14       32.41       29.76       27.97       26.79       26.05       25.60       25.34       25.19    
        25.10       25.05       25.03       25.02       25.01       25.00       25.00      -99.90      -99.90      -99.90    
       -99.90      -99.90      -99.90      -99.90      -99.90      -99.90      -99.90      -99.90      -99.90      -99.90    
       -99.90      -99.90      -99.90      -99.90      -99.90      -99.90      -99.90      -99.90      -99.90      -99.90    
   3    33.44       32.41       30.43       28.70       27.39       26.48       25.88       25.51       25.29       25.16    
        25.09       25.05       25.03       25.01       25.01       25.00      -99.90      -99.90      -99.90      -99.90    
       -99.90      -99.90      -99.90      -99.90      -99.90      -99.90      -99.90      -99.90      -99.90      -99.90    
       -99.90      -99.90      -99.90      -99.90      -99.90      -99.90      -99.90      -99.90      -99.90      -99.90    
   4    30.39       29.76       28.70       27.63       26.76       26.12       25.69       25.41       25.24       25.13    
        25.07       25.04       25.02       25.01       25.01       25.00      -99.90      -99.90      -99.90      -99.90    
       -99.90      -99.90      -99.90      -99.90      -99.90      -99.90      -99.90      -99.90      -99.90      -99.90    
       -99.90      -99.90      -99.90      -99.90      -99.90      -99.90      -99.90      -99.90      -99.90      -99.90    
   5    28.32       27.97       27.39       26.76       26.22       25.80       25.50       25.31       25.18       25.10    
        25.06       25.03       25.02       25.01       25.01       25.00      -99.90      -99.90      -99.90      -99.90    
       -99.90      -99.90      -99.90      -99.90      -99.90      -99.90      -99.90      -99.90      -99.90      -99.90    
       -99.90      -99.90      -99.90      -99.90      -99.90      -99.90      -99.90      -99.90      -99.90      -99.90    
   6    26.98       26.79       26.48       26.12       25.80       25.54       25.35       25.22       25.13       25.08    
        25.04       25.03       25.01       25.01       25.00       25.00      -99.90      -99.90      -99.90      -99.90    
       -99.90      -99.90      -99.90      -99.90      -99.90      -99.90      -99.90      -99.90      -99.90      -99.90    
       -99.90      -99.90      -99.90      -99.90      -99.90      -99.90      -99.90      -99.90      -99.90      -99.90    
   7    26.15       26.05       25.88       25.69       25.50       25.35       25.23       25.15       25.09       25.05    
        25.03       25.02       25.01       25.01       25.00      -99.90      -99.90      -99.90      -99.90      -99.90    
       -99.90      -99.90      -99.90      -99.90      -99.90      -99.90      -99.90      -99.90      -99.90      -99.90    
       -99.90      -99.90      -99.90      -99.90      -99.90      -99.90      -99.90      -99.90      -99.90      -99.90    
   8    25.65       25.60       25.51       25.41       25.31       25.22       25.15       25.10       25.06       25.04    
        25.02       25.01       25.01       25.00       25.00      -99.90      -99.90      -99.90      -99.90      -99.90    
       -99.90      -99.90      -99.90      -99.90      -99.90      -99.90      -99.90      -99.90      -99.90      -99.90    
       -99.90      -99.90      -99.90      -99.90      -99.90      -99.90      -99.90      -99.90      -99.90      -99.90    
   9    25.36       25.34       25.29       25.24       25.18       25.13       25.09       25.06       25.04       25.02    
        25.01       25.01       25.01       25.00      -99.90      -99.90      -99.90      -99.90      -99.90      -99.90    
       -99.90      -99.90      -99.90      -99.90      -99.90      -99.90      -99.90      -99.90      -99.90      -99.90    
       -99.90      -99.90      -99.90      -99.90      -99.90      -99.90      -99.90      -99.90      -99.90      -99.90    
  10    25.20       25.19       25.16       25.13       25.10       25.08       25.05       25.04       25.02       25.02    
        25.01       25.01       25.00       25.00      -99.90      -99.90      -99.90      -99.90      -99.90      -99.90    
       -99.90      -99.90      -99.90      -99.90      -99.90      -99.90      -99.90      -99.90      -99.90      -99.90    
       -99.90      -99.90      -99.90      -99.90      -99.90      -99.90      -99.90      -99.90      -99.90      -99.90    
  11    25.11       25.10       25.09       25.07       25.06       25.04       25.03       25.02       25.01       25.01    
        25.01       25.00       25.00      -99.90      -99.90      -99.90      -99.90      -99.90      -99.90      -99.90    
       -99.90      -99.90      -99.90      -99.90      -99.90      -99.90      -99.90      -99.90      -99.90      -99.90    
       -99.90      -99.90      -99.90      -99.90      -99.90      -99.90      -99.90      -99.90      -99.90      -99.90    
  12    25.06       25.05       25.05       25.04       25.03       25.03       25.02       25.01       25.01       25.01    
        25.00       25.00      -99.90      -99.90      -99.90      -99.90      -99.90      -99.90      -99.90      -99.90    
       -99.90      -99.90      -99.90      -99.90      -99.90      -99.90      -99.90      -99.90      -99.90      -99.90    
       -99.90      -99.90      -99.90      -99.90      -99.90      -99.90      -99.90      -99.90      -99.90      -99.90    
  13    25.03       25.03       25.03       25.02       25.02       25.01       25.01       25.01       25.01       25.00    
        25.00      -99.90      -99.90      -99.90      -99.90      -99.90      -99.90      -99.90      -99.90      -99.90    
       -99.90      -99.90      -99.90      -99.90      -99.90      -99.90      -99.90      -99.90      -99.90      -99.90    
       -99.90      -99.90      -99.90      -99.90      -99.90      -99.90      -99.90      -99.90      -99.90      -99.90    
  14    25.02       25.02       25.01       25.01       25.01       25.01       25.01       25.00       25.00       25.00    
       -99.90      -99.90      -99.90      -99.90      -99.90      -99.90      -99.90      -99.90      -99.90      -99.90    
       -99.90      -99.90      -99.90      -99.90      -99.90      -99.90      -99.90      -99.90      -99.90      -99.90    
       -99.90      -99.90      -99.90      -99.90      -99.90      -99.90      -99.90      -99.90      -99.90      -99.90    
  15    25.01       25.01       25.01       25.01       25.01       25.00       25.00       25.00      -99.90      -99.90    
       -99.90      -99.90      -99.90      -99.90      -99.90      -99.90      -99.90      -99.90      -99.90      -99.90    
       -99.90      -99.90      -99.90      -99.90      -99.90      -99.90      -99.90      -99.90      -99.90      -99.90    
       -99.90      -99.90      -99.90      -99.90      -99.90      -99.90      -99.90      -99.90      -99.90      -99.90    
  16    25.00       25.00       25.00       25.00       25.00       25.00      -99.90      -99.90      -99.90      -99.90    
       -99.90      -99.90      -99.90      -99.90      -99.90      -99.90      -99.90      -99.90      -99.90      -99.90    
       -99.90      -99.90      -99.90      -99.90      -99.90      -99.90      -99.90      -99.90      -99.90      -99.90    
       -99.90      -99.90      -99.90      -99.90      -99.90      -99.90      -99.90      -99.90      -99.90      -99.90    
  17    25.00       25.00      -99.90      -99.90      -99.90      -99.90      -99.90      -99.90      -99.90      -99.90    
       -99.90      -99.90      -99.90      -99.90      -99.90      -99.90      -99.90      -99.90      -99.90      -99.90    
       -99.90      -99.90      -99.90      -99.90      -99.90      -99.90      -99.90      -99.90      -99.90      -99.90    
       -99.90      -99.90      -99.90      -99.90      -99.90      -99.90      -99.90      -99.90      -99.90      -99.90    
  18   -99.90      -99.90      -99.90      -99.90      -99.90      -99.90      -99.90      -99.90      -99.90      -99.90    
       -99.90      -99.90      -99.90      -99.90      -99.90      -99.90      -99.90      -99.90      -99.90      -99.90    
       -99.90      -99.90      -99.90      -99.90      -99.90      -99.90      -99.90      -99.90      -99.90      -99.90    
       -99.90      -99.90      -99.90      -99.90      -99.90      -99.90      -99.90      -99.90      -99.90      -99.90    
  19   -99.90      -99.90      -99.90      -99.90      -99.90      -99.90      -99.90      -99.90      -99.90      -99.90    
       -99.90      -99.90      -99.90      -99.90      -99.90      -99.90      -99.90      -99.90      -99.90      -99.90    
       -99.90      -99.90      -99.90      -99.90      -99.90      -99.90      -99.90      -99.90      -99.90      -99.90    
       -99.90      -99.90      -99.90      -99.90      -99.90      -99.90      -99.90      -99.90      -99.90      -99.90    
  20   -99.90      -99.90      -99.90      -99.90      -99.90      -99.90      -99.90      -99.90      -99.90      -99.90    
       -99.90      -99.90      -99.90      -99.90      -99.90      -99.90      -99.90      -99.90      -99.90      -99.90    
       -99.90      -99.90      -99.90      -99.90      -99.90      -99.90      -99.90      -99.90      -99.90      -99.90    
       -99.90      -99.90      -99.90      -99.90      -99.90      -99.90      -99.90      -99.90      -99.90      -99.90    
  21   -99.90      -99.90      -99.90      -99.90      -99.90      -99.90      -99.90      -99.90      -99.90      -99.90    
       -99.90      -99.90      -99.90      -99.90      -99.90      -99.90      -99.90      -99.90      -99.90      -99.90    
       -99.90      -99.90      -99.90      -99.90      -99.90      -99.90      -99.90      -99.90      -99.90      -99.90    
       -99.90      -99.90      -99.90      -99.90      -99.90      -99.90      -99.90      -99.90      -99.90      -99.90    
  22   -99.90      -99.90      -99.90      -99.90      -99.90      -99.90      -99.90      -99.90      -99.90      -99.90    
       -99.90      -99.90      -99.90      -99.90      -99.90      -99.90      -99.90      -99.90      -99.90      -99.90    
       -99.90      -99.90      -99.90      -99.90      -99.90      -99.90      -99.90      -99.90      -99.90      -99.90    
       -99.90      -99.90      -99.90      -99.90      -99.90      -99.90      -99.90      -99.90      -99.90      -99.90    
  23   -99.90      -99.90      -99.90      -99.90      -99.90      -99.90      -99.90      -99.90      -99.90      -99.90    
       -99.90      -99.90      -99.90      -99.90      -99.90      -99.90      -99.90      -99.90      -99.90      -99.90    
       -99.90      -99.90      -99.90      -99.90      -99.90      -99.90      -99.90      -99.90      -99.90      -99.90    
       -99.90      -99.90      -99.90      -99.90      -99.90      -99.90      -99.90      -99.90      -99.90      -99.90    
  24   -99.90      -99.90      -99.90      -99.90      -99.90      -99.90      -99.90      -99.90      -99.90      -99.90    
       -99.90      -99.90      -99.90      -99.90      -99.90      -99.90      -99.90      -99.90      -99.90      -99.90    
       -99.90      -99.90      -99.90      -99.90      -99.90      -99.90      -99.90      -99.90      -99.90      -99.90    
       -99.90      -99.90      -99.90      -99.90      -99.90      -99.90      -99.90      -99.90      -99.90      -99.90    
  25   -99.90      -99.90      -99.90      -99.90      -99.90      -99.90      -99.90      -99.90      -99.90      -99.90    
       -99.90      -99.90      -99.90      -99.90      -99.90      -99.90      -99.90      -99.90      -99.90      -99.90    
       -99.90      -99.90      -99.90      -99.90      -99.90      -99.90      -99.90      -99.90      -99.90      -99.90    
       -99.90      -99.90      -99.90      -99.90      -99.90      -99.90      -99.90      -99.90      -99.90      -99.90    
  26   -99.90      -99.90      -99.90      -99.90      -99.90      -99.90      -99.90      -99.90      -99.90      -99.90    
       -99.90      -99.90      -99.90      -99.90      -99.90      -99.90      -99.90      -99.90      -99.90      -99.90    
       -99.90      -99.90      -99.90      -99.90      -99.90      -99.90      -99.90      -99.90      -99.90      -99.90    
       -99.90      -99.90      -99.90      -99.90      -99.90      -99.90      -99.90      -99.90      -99.90      -99.90    
  27   -99.90      -99.90      -99.90      -99.90      -99.90      -99.90      -99.90      -99.90      -99.90      -99.90    
       -99.90      -99.90      -99.90      -99.90      -99.90      -99.90      -99.90      -99.90      -99.90      -99.90    
       -99.90      -99.90      -99.90      -99.90      -99.90      -99.90      -99.90      -99.90      -99.90      -99.90    
       -99.90      -99.90      -99.90      -99.90      -99.90      -99.90      -99.90      -99.90      -99.90      -99.90    
  28   -99.90      -99.90      -99.90      -99.90      -99.90      -99.90      -99.90      -99.90      -99.90      -99.90    
       -99.90      -99.90      -99.90      -99.90      -99.90      -99.90      -99.90      -99.90      -99.90      -99.90    
       -99.90      -99.90      -99.90      -99.90      -99.90      -99.90      -99.90      -99.90      -99.90      -99.90    
       -99.90      -99.90      -99.90      -99.90      -99.90      -99.90      -99.90      -99.90      -99.90      -99.90    
  29   -99.90      -99.90      -99.90      -99.90      -99.90      -99.90      -99.90      -99.90      -99.90      -99.90    
       -99.90      -99.90      -99.90      -99.90      -99.90      -99.90      -99.90      -99.90      -99.90      -99.90    
       -99.90      -99.90      -99.90      -99.90      -99.90      -99.90      -99.90      -99.90      -99.90      -99.90    
       -99.90      -99.90      -99.90      -99.90      -99.90      -99.90      -99.90      -99.90      -99.90      -99.90    
  30   -99.90      -99.90      -99.90      -99.90      -99.90      -99.90      -99.90      -99.90      -99.90      -99.90    
       -99.90      -99.90      -99.90      -99.90      -99.90      -99.90      -99.90      -99.90      -99.90      -99.90    
       -99.90      -99.90      -99.90      -99.90      -99.90      -99.90      -99.90      -99.90      -99.90      -99.90    
       -99.90      -99.90      -99.90      -99.90      -99.90      -99.90      -99.90      -99.90      -99.90      -99.90    
  31   -99.90      -99.90      -99.90      -99.90      -99.90      -99.90      -99.90      -99.90      -99.90      -99.90    
       -99.90      -99.90      -99.90      -99.90      -99.90      -99.90      -99.90      -99.90      -99.90      -99.90    
       -99.90      -99.90      -99.90      -99.90      -99.90      -99.90      -99.90      -99.90      -99.90      -99.90    
       -99.90      -99.90      -99.90      -99.90      -99.90      -99.90      -99.90      -99.90      -99.90      -99.90    
  32   -99.90      -99.90      -99.90      -99.90      -99.90      -99.90      -99.90      -99.90      -99.90      -99.90    
       -99.90      -99.90      -99.90      -99.90      -99.90      -99.90      -99.90      -99.90      -99.90      -99.90    
       -99.90      -99.90      -99.90      -99.90      -99.90      -99.90      -99.90      -99.90      -99.90      -99.90    
       -99.90      -99.90      -99.90      -99.90      -99.90      -99.90      -99.90      -99.90      -99.90      -99.90    
  33   -99.90      -99.90      -99.90      -99.90      -99.90      -99.90      -99.90      -99.90      -99.90      -99.90    
       -99.90      -99.90      -99.90      -99.90      -99.90      -99.90      -99.90      -99.90      -99.90      -99.90    
       -99.90      -99.90      -99.90      -99.90      -99.90      -99.90      -99.90      -99.90      -99.90      -99.90    
       -99.90      -99.90      -99.90      -99.90      -99.90      -99.90      -99.90      -99.90      -99.90      -99.90    
  34   -99.90      -99.90      -99.90      -99.90      -99.90      -99.90      -99.90      -99.90      -99.90      -99.90    
       -99.90      -99.90      -99.90      -99.90      -99.90      -99.90      -99.90      -99.90      -99.90      -99.90    
       -99.90      -99.90      -99.90      -99.90      -99.90      -99.90      -99.90      -99.90      -99.90      -99.90    
       -99.90      -99.90      -99.90      -99.90      -99.90      -99.90      -99.90      -99.90      -99.90      -99.90    
  35   -99.90      -99.90      -99.90      -99.90      -99.90      -99.90      -99.90      -99.90      -99.90      -99.90    
       -99.90      -99.90      -99.90      -99.90      -99.90      -99.90      -99.90      -99.90      -99.90      -99.90    
       -99.90      -99.90      -99.90      -99.90      -99.90      -99.90      -99.90      -99.90      -99.90      -99.90    
       -99.90      -99.90      -99.90      -99.90      -99.90      -99.90      -99.90      -99.90      -99.90      -99.90    
  36   -99.90      -99.90      -99.90      -99.90      -99.90      -99.90      -99.90      -99.90      -99.90      -99.90    
       -99.90      -99.90      -99.90      -99.90      -99.90      -99.90      -99.90      -99.90      -99.90      -99.90    
       -99.90      -99.90      -99.90      -99.90      -99.90      -99.90      -99.90      -99.90      -99.90      -99.90    
       -99.90      -99.90      -99.90      -99.90      -99.90      -99.90      -99.90      -99.90      -99.90      -99.90    
  37   -99.90      -99.90      -99.90      -99.90      -99.90      -99.90      -99.90      -99.90      -99.90      -99.90    
       -99.90      -99.90      -99.90      -99.90      -99.90      -99.90      -99.90      -99.90      -99.90      -99.90    
       -99.90      -99.90      -99.90      -99.90      -99.90      -99.90      -99.90      -99.90      -99.90      -99.90    
       -99.90      -99.90      -99.90      -99.90      -99.90      -99.90      -99.90      -99.90      -99.90      -99.90    
  38   -99.90      -99.90      -99.90      -99.90      -99.90      -99.90      -99.90      -99.90      -99.90      -99.90    
       -99.90      -99.90      -99.90      -99.90      -99.90      -99.90      -99.90      -99.90      -99.90      -99.90    
       -99.90      -99.90      -99.90      -99.90      -99.90      -99.90      -99.90      -99.90      -99.90      -99.90    
       -99.90      -99.90      -99.90      -99.90      -99.90      -99.90      -99.90      -99.90      -99.90      -99.90    
  39   -99.90      -99.90      -99.90      -99.90      -99.90      -99.90      -99.90      -99.90      -99.90      -99.90    
       -99.90      -99.90      -99.90      -99.90      -99.90      -99.90      -99.90      -99.90      -99.90      -99.90    
       -99.90      -99.90      -99.90      -99.90      -99.90      -99.90      -99.90      -99.90      -99.90      -99.90    
       -99.90      -99.90      -99.90      -99.90      -99.90      -99.90      -99.90      -99.90      -99.90      -99.90    
  40   -99.90      -99.90      -99.90      -99.90      -99.90      -99.90      -99.90      -99.90      -99.90      -99.90    
       -99.90      -99.90      -99.90      -99.90      -99.90      -99.90      -99.90      -99.90      -99.90      -99.90    
       -99.90      -99.90      -99.90      -99.90      -99.90      -99.90      -99.90      -99.90      -99.90      -99.90    
       -99.90      -99.90      -99.90      -99.90      -99.90      -99.90      -99.90      -99.90      -99.90      -99.90    
1
              HEAD IN LAYER 10 AT END OF TIME STEP 10 IN STRESS PERIOD 1
  ---------------------------------------------------------------------------

            1           2           3           4           5           6           7           8           9          10
           11          12          13          14          15          16          17          18          19          20
           21          22          23          24          25          26          27          28          29          30
           31          32          33          34          35          36          37          38          39          40
 ........................................................................................................................
   1    38.74       37.11       33.36       30.41       28.37       27.03       26.19       25.68       25.38       25.21    
        25.11       25.06       25.03       25.02       25.01       25.00       25.00       25.00       25.00       25.00    
        25.00       25.00       25.00       25.00       25.00       25.00       25.00       25.00       25.00       25.00    
        25.00       25.00       25.00       25.00       25.00       25.00       25.00       25.00       25.00       25.00    
   2    37.11       35.66       32.35       29.80       28.02       26.84       26.09       25.63       25.35       25.20    
        25.11       25.06       25.03       25.02       25.01       25.00       25.00       25.00       25.00       25.00    
        25.00       25.00       25.00       25.00       25.00       25.00       25.00       25.00       25.00       25.00    
        25.00       25.00       25.00       25.00       25.00       25.00       25.00       25.00       25.00       25.00    
   3    33.36       32.35       30.46       28.75       27.44       26.52       25.91       25.53       25.31       25.17    
        25.09       25.05       25.03       25.01       25.01       25.00       25.00       25.00       25.00       25.00    
        25.00       25.00       25.00       25.00       25.00       25.00       25.00       25.00       25.00       25.00    
        25.00       25.00       25.00       25.00       25.00       25.00       25.00       25.00       25.00       25.00    
   4    30.41       29.80       28.75       27.69       26.81       26.16       25.71       25.43       25.25       25.14    
        25.08       25.04       25.02       25.01       25.01       25.00       25.00       25.00       25.00       25.00    
        25.00       25.00       25.00       25.00       25.00       25.00       25.00       25.00       25.00       25.00    
        25.00       25.00       25.00       25.00       25.00       25.00       25.00       25.00       25.00       25.00    
   5    28.37       28.02       27.44       26.81       26.26       25.83       25.52       25.32       25.19       25.11    
        25.06       25.03       25.02       25.01       25.01       25.00       25.00       25.00       25.00       25.00    
        25.00       25.00       25.00       25.00       25.00       25.00       25.00       25.00       25.00       25.00    
        25.00       25.00       25.00       25.00       25.00       25.00       25.00       25.00       25.00       25.00    
   6    27.03       26.84       26.52       26.16       25.83       25.56       25.36       25.23       25.14       25.08    
        25.05       25.03       25.01       25.01       25.00       25.00       25.00       25.00       25.00       25.00    
        25.00       25.00       25.00       25.00       25.00       25.00       25.00       25.00       25.00       25.00    
        25.00       25.00       25.00       25.00       25.00       25.00       25.00       25.00       25.00       25.00    
   7    26.19       26.09       25.91       25.71       25.52       25.36       25.24       25.16       25.10       25.06    
        25.03       25.02       25.01       25.01       25.00       25.00       25.00       25.00       25.00       25.00    
        25.00       25.00       25.00       25.00       25.00       25.00       25.00       25.00       25.00       25.00    
        25.00       25.00       25.00       25.00       25.00       25.00       25.00       25.00       25.00       25.00    
   8    25.68       25.63       25.53       25.43       25.32       25.23       25.16       25.10       25.06       25.04    
        25.02       25.01       25.01       25.00       25.00       25.00       25.00       25.00       25.00       25.00    
        25.00       25.00       25.00       25.00       25.00       25.00       25.00       25.00       25.00       25.00    
        25.00       25.00       25.00       25.00       25.00       25.00       25.00       25.00       25.00       25.00    
   9    25.38       25.35       25.31       25.25       25.19       25.14       25.10       25.06       25.04       25.03    
        25.02       25.01       25.01       25.00       25.00       25.00       25.00       25.00       25.00       25.00    
        25.00       25.00       25.00       25.00       25.00       25.00       25.00       25.00       25.00       25.00    
        25.00       25.00       25.00       25.00       25.00       25.00       25.00       25.00       25.00       25.00    
  10    25.21       25.20       25.17       25.14       25.11       25.08       25.06       25.04       25.03       25.02    
        25.01       25.01       25.00       25.00       25.00       25.00       25.00       25.00       25.00       25.00    
        25.00       25.00       25.00       25.00       25.00       25.00       25.00       25.00       25.00       25.00    
        25.00       25.00       25.00       25.00       25.00       25.00       25.00       25.00       25.00       25.00    
  11    25.11       25.11       25.09       25.08       25.06       25.05       25.03       25.02       25.02       25.01    
        25.01       25.00       25.00       25.00       25.00       25.00       25.00       25.00       25.00       25.00    
        25.00       25.00       25.00       25.00       25.00       25.00       25.00       25.00       25.00       25.00    
        25.00       25.00       25.00       25.00       25.00       25.00       25.00       25.00       25.00       25.00    
  12    25.06       25.06       25.05       25.04       25.03       25.03       25.02       25.01       25.01       25.01    
        25.00       25.00       25.00       25.00       25.00       25.00       25.00       25.00       25.00       25.00    
        25.00       25.00       25.00       25.00       25.00       25.00       25.00       25.00       25.00       25.00    
        25.00       25.00       25.00       25.00       25.00       25.00       25.00       25.00       25.00       25.00    
  13    25.03       25.03       25.03       25.02       25.02       25.01       25.01       25.01       25.01       25.00    
        25.00       25.00       25.00       25.00       25.00       25.00       25.00       25.00       25.00       25.00    
        25.00       25.00       25.00       25.00       25.00       25.00       25.00       25.00       25.00       25.00    
        25.00       25.00       25.00       25.00       25.00       25.00       25.00       25.00       25.00       25.00    
  14    25.02       25.02       25.01       25.01       25.01       25.01       25.01       25.00       25.00       25.00    
        25.00       25.00       25.00       25.00       25.00       25.00       25.00       25.00       25.00       25.00    
        25.00       25.00       25.00       25.00       25.00       25.00       25.00       25.00       25.00       25.00    
        25.00       25.00       25.00       25.00       25.00       25.00       25.00       25.00       25.00       25.00    
  15    25.01       25.01       25.01       25.01       25.01       25.00       25.00       25.00       25.00       25.00    
        25.00       25.00       25.00       25.00       25.00       25.00       25.00       25.00       25.00       25.00    
        25.00       25.00       25.00       25.00       25.00       25.00       25.00       25.00       25.00       25.00    
        25.00       25.00       25.00       25.00       25.00       25.00       25.00       25.00       25.00       25.00    
  16    25.00       25.00       25.00       25.00       25.00       25.00       25.00       25.00       25.00       25.00    
        25.00       25.00       25.00       25.00       25.00       25.00       25.00       25.00       25.00       25.00    
        25.00       25.00       25.00       25.00       25.00       25.00       25.00       25.00       25.00       25.00    
        25.00       25.00       25.00       25.00       25.00       25.00       25.00       25.00       25.00       25.00    
  17    25.00       25.00       25.00       25.00       25.00       25.00       25.00       25.00       25.00       25.00    
        25.00       25.00       25.00       25.00       25.00       25.00       25.00       25.00       25.00       25.00    
        25.00       25.00       25.00       25.00       25.00       25.00       25.00       25.00       25.00       25.00    
        25.00       25.00       25.00       25.00       25.00       25.00       25.00       25.00       25.00       25.00    
  18    25.00       25.00       25.00       25.00       25.00       25.00       25.00       25.00       25.00       25.00    
        25.00       25.00       25.00       25.00       25.00       25.00       25.00       25.00       25.00       25.00    
        25.00       25.00       25.00       25.00       25.00       25.00       25.00       25.00       25.00       25.00    
        25.00       25.00       25.00       25.00       25.00       25.00       25.00       25.00       25.00       25.00    
  19    25.00       25.00       25.00       25.00       25.00       25.00       25.00       25.00       25.00       25.00    
        25.00       25.00       25.00       25.00       25.00       25.00       25.00       25.00       25.00       25.00    
        25.00       25.00       25.00       25.00       25.00       25.00       25.00       25.00       25.00       25.00    
        25.00       25.00       25.00       25.00       25.00       25.00       25.00       25.00       25.00       25.00    
  20    25.00       25.00       25.00       25.00       25.00       25.00       25.00       25.00       25.00       25.00    
        25.00       25.00       25.00       25.00       25.00       25.00       25.00       25.00       25.00       25.00    
        25.00       25.00       25.00       25.00       25.00       25.00       25.00       25.00       25.00       25.00    
        25.00       25.00       25.00       25.00       25.00       25.00       25.00       25.00       25.00       25.00    
  21    25.00       25.00       25.00       25.00       25.00       25.00       25.00       25.00       25.00       25.00    
        25.00       25.00       25.00       25.00       25.00       25.00       25.00       25.00       25.00       25.00    
        25.00       25.00       25.00       25.00       25.00       25.00       25.00       25.00       25.00       25.00    
        25.00       25.00       25.00       25.00       25.00       25.00       25.00       25.00       25.00       25.00    
  22    25.00       25.00       25.00       25.00       25.00       25.00       25.00       25.00       25.00       25.00    
        25.00       25.00       25.00       25.00       25.00       25.00       25.00       25.00       25.00       25.00    
        25.00       25.00       25.00       25.00       25.00       25.00       25.00       25.00       25.00       25.00    
        25.00       25.00       25.00       25.00       25.00       25.00       25.00       25.00       25.00       25.00    
  23    25.00       25.00       25.00       25.00       25.00       25.00       25.00       25.00       25.00       25.00    
        25.00       25.00       25.00       25.00       25.00       25.00       25.00       25.00       25.00       25.00    
        25.00       25.00       25.00       25.00       25.00       25.00       25.00       25.00       25.00       25.00    
        25.00       25.00       25.00       25.00       25.00       25.00       25.00       25.00       25.00       25.00    
  24    25.00       25.00       25.00       25.00       25.00       25.00       25.00       25.00       25.00       25.00    
        25.00       25.00       25.00       25.00       25.00       25.00       25.00       25.00       25.00       25.00    
        25.00       25.00       25.00       25.00       25.00       25.00       25.00       25.00       25.00       25.00    
        25.00       25.00       25.00       25.00       25.00       25.00       25.00       25.00       25.00       25.00    
  25    25.00       25.00       25.00       25.00       25.00       25.00       25.00       25.00       25.00       25.00    
        25.00       25.00       25.00       25.00       25.00       25.00       25.00       25.00       25.00       25.00    
        25.00       25.00       25.00       25.00       25.00       25.00       25.00       25.00       25.00       25.00    
        25.00       25.00       25.00       25.00       25.00       25.00       25.00       25.00       25.00       25.00    
  26    25.00       25.00       25.00       25.00       25.00       25.00       25.00       25.00       25.00       25.00    
        25.00       25.00       25.00       25.00       25.00       25.00       25.00       25.00       25.00       25.00    
        25.00       25.00       25.00       25.00       25.00       25.00       25.00       25.00       25.00       25.00    
        25.00       25.00       25.00       25.00       25.00       25.00       25.00       25.00       25.00       25.00    
  27    25.00       25.00       25.00       25.00       25.00       25.00       25.00       25.00       25.00       25.00    
        25.00       25.00       25.00       25.00       25.00       25.00       25.00       25.00       25.00       25.00    
        25.00       25.00       25.00       25.00       25.00       25.00       25.00       25.00       25.00       25.00    
        25.00       25.00       25.00       25.00       25.00       25.00       25.00       25.00       25.00       25.00    
  28    25.00       25.00       25.00       25.00       25.00       25.00       25.00       25.00       25.00       25.00    
        25.00       25.00       25.00       25.00       25.00       25.00       25.00       25.00       25.00       25.00    
        25.00       25.00       25.00       25.00       25.00       25.00       25.00       25.00       25.00       25.00    
        25.00       25.00       25.00       25.00       25.00       25.00       25.00       25.00       25.00       25.00    
  29    25.00       25.00       25.00       25.00       25.00       25.00       25.00       25.00       25.00       25.00    
        25.00       25.00       25.00       25.00       25.00       25.00       25.00       25.00       25.00       25.00    
        25.00       25.00       25.00       25.00       25.00       25.00       25.00       25.00       25.00       25.00    
        25.00       25.00       25.00       25.00       25.00       25.00       25.00       25.00       25.00       25.00    
  30    25.00       25.00       25.00       25.00       25.00       25.00       25.00       25.00       25.00       25.00    
        25.00       25.00       25.00       25.00       25.00       25.00       25.00       25.00       25.00       25.00    
        25.00       25.00       25.00       25.00       25.00       25.00       25.00       25.00       25.00       25.00    
        25.00       25.00       25.00       25.00       25.00       25.00       25.00       25.00       25.00       25.00    
  31    25.00       25.00       25.00       25.00       25.00       25.00       25.00       25.00       25.00       25.00    
        25.00       25.00       25.00       25.00       25.00       25.00       25.00       25.00       25.00       25.00    
        25.00       25.00       25.00       25.00       25.00       25.00       25.00       25.00       25.00       25.00    
        25.00       25.00       25.00       25.00       25.00       25.00       25.00       25.00       25.00       25.00    
  32    25.00       25.00       25.00       25.00       25.00       25.00       25.00       25.00       25.00       25.00    
        25.00       25.00       25.00       25.00       25.00       25.00       25.00       25.00       25.00       25.00    
        25.00       25.00       25.00       25.00       25.00       25.00       25.00       25.00       25.00       25.00    
        25.00       25.00       25.00       25.00       25.00       25.00       25.00       25.00       25.00       25.00    
  33    25.00       25.00       25.00       25.00       25.00       25.00       25.00       25.00       25.00       25.00    
        25.00       25.00       25.00       25.00       25.00       25.00       25.00       25.00       25.00       25.00    
        25.00       25.00       25.00       25.00       25.00       25.00       25.00       25.00       25.00       25.00    
        25.00       25.00       25.00       25.00       25.00       25.00       25.00       25.00       25.00       25.00    
  34    25.00       25.00       25.00       25.00       25.00       25.00       25.00       25.00       25.00       25.00    
        25.00       25.00       25.00       25.00       25.00       25.00       25.00       25.00       25.00       25.00    
        25.00       25.00       25.00       25.00       25.00       25.00       25.00       25.00       25.00       25.00    
        25.00       25.00       25.00       25.00       25.00       25.00       25.00       25.00       25.00       25.00    
  35    25.00       25.00       25.00       25.00       25.00       25.00       25.00       25.00       25.00       25.00    
        25.00       25.00       25.00       25.00       25.00       25.00       25.00       25.00       25.00       25.00    
        25.00       25.00       25.00       25.00       25.00       25.00       25.00       25.00       25.00       25.00    
        25.00       25.00       25.00       25.00       25.00       25.00       25.00       25.00       25.00       25.00    
  36    25.00       25.00       25.00       25.00       25.00       25.00       25.00       25.00       25.00       25.00    
        25.00       25.00       25.00       25.00       25.00       25.00       25.00       25.00       25.00       25.00    
        25.00       25.00       25.00       25.00       25.00       25.00       25.00       25.00       25.00       25.00    
        25.00       25.00       25.00       25.00       25.00       25.00       25.00       25.00       25.00       25.00    
  37    25.00       25.00       25.00       25.00       25.00       25.00       25.00       25.00       25.00       25.00    
        25.00       25.00       25.00       25.00       25.00       25.00       25.00       25.00       25.00       25.00    
        25.00       25.00       25.00       25.00       25.00       25.00       25.00       25.00       25.00       25.00    
        25.00       25.00       25.00       25.00       25.00       25.00       25.00       25.00       25.00       25.00    
  38    25.00       25.00       25.00       25.00       25.00       25.00       25.00       25.00       25.00       25.00    
        25.00       25.00       25.00       25.00       25.00       25.00       25.00       25.00       25.00       25.00    
        25.00       25.00       25.00       25.00       25.00       25.00       25.00       25.00       25.00       25.00    
        25.00       25.00       25.00       25.00       25.00       25.00       25.00       25.00       25.00       25.00    
  39    25.00       25.00       25.00       25.00       25.00       25.00       25.00       25.00       25.00       25.00    
        25.00       25.00       25.00       25.00       25.00       25.00       25.00       25.00       25.00       25.00    
        25.00       25.00       25.00       25.00       25.00       25.00       25.00       25.00       25.00       25.00    
        25.00       25.00       25.00       25.00       25.00       25.00       25.00       25.00       25.00       25.00    
  40    25.00       25.00       25.00       25.00       25.00       25.00       25.00       25.00       25.00       25.00    
        25.00       25.00       25.00       25.00       25.00       25.00       25.00       25.00       25.00       25.00    
        25.00       25.00       25.00       25.00       25.00       25.00       25.00       25.00       25.00       25.00    
        25.00       25.00       25.00       25.00       25.00       25.00       25.00       25.00       25.00       25.00    
1
              HEAD IN LAYER 11 AT END OF TIME STEP 10 IN STRESS PERIOD 1
  ---------------------------------------------------------------------------

            1           2           3           4           5           6           7           8           9          10
           11          12          13          14          15          16          17          18          19          20
           21          22          23          24          25          26          27          28          29          30
           31          32          33          34          35          36          37          38          39          40
 ........................................................................................................................
   1    38.33       36.72       33.28       30.43       28.41       27.07       26.22       25.70       25.39       25.22    
        25.12       25.06       25.03       25.02       25.01       25.00       25.00       25.00       25.00       25.00    
        25.00       25.00       25.00       25.00       25.00       25.00       25.00       25.00       25.00       25.00    
        25.00       25.00       25.00       25.00       25.00       25.00       25.00       25.00       25.00       25.00    
   2    36.72       35.30       32.30       29.82       28.06       26.88       26.11       25.64       25.37       25.20    
        25.11       25.06       25.03       25.02       25.01       25.00       25.00       25.00       25.00       25.00    
        25.00       25.00       25.00       25.00       25.00       25.00       25.00       25.00       25.00       25.00    
        25.00       25.00       25.00       25.00       25.00       25.00       25.00       25.00       25.00       25.00    
   3    33.28       32.30       30.48       28.79       27.48       26.55       25.94       25.55       25.32       25.18    
        25.10       25.05       25.03       25.02       25.01       25.00       25.00       25.00       25.00       25.00    
        25.00       25.00       25.00       25.00       25.00       25.00       25.00       25.00       25.00       25.00    
        25.00       25.00       25.00       25.00       25.00       25.00       25.00       25.00       25.00       25.00    
   4    30.43       29.82       28.79       27.73       26.85       26.19       25.74       25.44       25.26       25.15    
        25.08       25.05       25.02       25.01       25.01       25.00       25.00       25.00       25.00       25.00    
        25.00       25.00       25.00       25.00       25.00       25.00       25.00       25.00       25.00       25.00    
        25.00       25.00       25.00       25.00       25.00       25.00       25.00       25.00       25.00       25.00    
   5    28.41       28.06       27.48       26.85       26.29       25.85       25.54       25.33       25.20       25.11    
        25.07       25.04       25.02       25.01       25.01       25.00       25.00       25.00       25.00       25.00    
        25.00       25.00       25.00       25.00       25.00       25.00       25.00       25.00       25.00       25.00    
        25.00       25.00       25.00       25.00       25.00       25.00       25.00       25.00       25.00       25.00    
   6    27.07       26.88       26.55       26.19       25.85       25.58       25.38       25.24       25.14       25.09    
        25.05       25.03       25.02       25.01       25.00       25.00       25.00       25.00       25.00       25.00    
        25.00       25.00       25.00       25.00       25.00       25.00       25.00       25.00       25.00       25.00    
        25.00       25.00       25.00       25.00       25.00       25.00       25.00       25.00       25.00       25.00    
   7    26.22       26.11       25.94       25.74       25.54       25.38       25.25       25.16       25.10       25.06    
        25.04       25.02       25.01       25.01       25.00       25.00       25.00       25.00       25.00       25.00    
        25.00       25.00       25.00       25.00       25.00       25.00       25.00       25.00       25.00       25.00    
        25.00       25.00       25.00       25.00       25.00       25.00       25.00       25.00       25.00       25.00    
   8    25.70       25.64       25.55       25.44       25.33       25.24       25.16       25.11       25.07       25.04    
        25.02       25.01       25.01       25.00       25.00       25.00       25.00       25.00       25.00       25.00    
        25.00       25.00       25.00       25.00       25.00       25.00       25.00       25.00       25.00       25.00    
        25.00       25.00       25.00       25.00       25.00       25.00       25.00       25.00       25.00       25.00    
   9    25.39       25.37       25.32       25.26       25.20       25.14       25.10       25.07       25.04       25.03    
        25.02       25.01       25.01       25.00       25.00       25.00       25.00       25.00       25.00       25.00    
        25.00       25.00       25.00       25.00       25.00       25.00       25.00       25.00       25.00       25.00    
        25.00       25.00       25.00       25.00       25.00       25.00       25.00       25.00       25.00       25.00    
  10    25.22       25.20       25.18       25.15       25.11       25.09       25.06       25.04       25.03       25.02    
        25.01       25.01       25.00       25.00       25.00       25.00       25.00       25.00       25.00       25.00    
        25.00       25.00       25.00       25.00       25.00       25.00       25.00       25.00       25.00       25.00    
        25.00       25.00       25.00       25.00       25.00       25.00       25.00       25.00       25.00       25.00    
  11    25.12       25.11       25.10       25.08       25.07       25.05       25.04       25.02       25.02       25.01    
        25.01       25.00       25.00       25.00       25.00       25.00       25.00       25.00       25.00       25.00    
        25.00       25.00       25.00       25.00       25.00       25.00       25.00       25.00       25.00       25.00    
        25.00       25.00       25.00       25.00       25.00       25.00       25.00       25.00       25.00       25.00    
  12    25.06       25.06       25.05       25.05       25.04       25.03       25.02       25.01       25.01       25.01    
        25.00       25.00       25.00       25.00       25.00       25.00       25.00       25.00       25.00       25.00    
        25.00       25.00       25.00       25.00       25.00       25.00       25.00       25.00       25.00       25.00    
        25.00       25.00       25.00       25.00       25.00       25.00       25.00       25.00       25.00       25.00    
  13    25.03       25.03       25.03       25.02       25.02       25.02       25.01       25.01       25.01       25.00    
        25.00       25.00       25.00       25.00       25.00       25.00       25.00       25.00       25.00       25.00    
        25.00       25.00       25.00       25.00       25.00       25.00       25.00       25.00       25.00       25.00    
        25.00       25.00       25.00       25.00       25.00       25.00       25.00       25.00       25.00       25.00    
  14    25.02       25.02       25.02       25.01       25.01       25.01       25.01       25.00       25.00       25.00    
        25.00       25.00       25.00       25.00       25.00       25.00       25.00       25.00       25.00       25.00    
        25.00       25.00       25.00       25.00       25.00       25.00       25.00       25.00       25.00       25.00    
        25.00       25.00       25.00       25.00       25.00       25.00       25.00       25.00       25.00       25.00    
  15    25.01       25.01       25.01       25.01       25.01       25.00       25.00       25.00       25.00       25.00    
        25.00       25.00       25.00       25.00       25.00       25.00       25.00       25.00       25.00       25.00    
        25.00       25.00       25.00       25.00       25.00       25.00       25.00       25.00       25.00       25.00    
        25.00       25.00       25.00       25.00       25.00       25.00       25.00       25.00       25.00       25.00    
  16    25.00       25.00       25.00       25.00       25.00       25.00       25.00       25.00       25.00       25.00    
        25.00       25.00       25.00       25.00       25.00       25.00       25.00       25.00       25.00       25.00    
        25.00       25.00       25.00       25.00       25.00       25.00       25.00       25.00       25.00       25.00    
        25.00       25.00       25.00       25.00       25.00       25.00       25.00       25.00       25.00       25.00    
  17    25.00       25.00       25.00       25.00       25.00       25.00       25.00       25.00       25.00       25.00    
        25.00       25.00       25.00       25.00       25.00       25.00       25.00       25.00       25.00       25.00    
        25.00       25.00       25.00       25.00       25.00       25.00       25.00       25.00       25.00       25.00    
        25.00       25.00       25.00       25.00       25.00       25.00       25.00       25.00       25.00       25.00    
  18    25.00       25.00       25.00       25.00       25.00       25.00       25.00       25.00       25.00       25.00    
        25.00       25.00       25.00       25.00       25.00       25.00       25.00       25.00       25.00       25.00    
        25.00       25.00       25.00       25.00       25.00       25.00       25.00       25.00       25.00       25.00    
        25.00       25.00       25.00       25.00       25.00       25.00       25.00       25.00       25.00       25.00    
  19    25.00       25.00       25.00       25.00       25.00       25.00       25.00       25.00       25.00       25.00    
        25.00       25.00       25.00       25.00       25.00       25.00       25.00       25.00       25.00       25.00    
        25.00       25.00       25.00       25.00       25.00       25.00       25.00       25.00       25.00       25.00    
        25.00       25.00       25.00       25.00       25.00       25.00       25.00       25.00       25.00       25.00    
  20    25.00       25.00       25.00       25.00       25.00       25.00       25.00       25.00       25.00       25.00    
        25.00       25.00       25.00       25.00       25.00       25.00       25.00       25.00       25.00       25.00    
        25.00       25.00       25.00       25.00       25.00       25.00       25.00       25.00       25.00       25.00    
        25.00       25.00       25.00       25.00       25.00       25.00       25.00       25.00       25.00       25.00    
  21    25.00       25.00       25.00       25.00       25.00       25.00       25.00       25.00       25.00       25.00    
        25.00       25.00       25.00       25.00       25.00       25.00       25.00       25.00       25.00       25.00    
        25.00       25.00       25.00       25.00       25.00       25.00       25.00       25.00       25.00       25.00    
        25.00       25.00       25.00       25.00       25.00       25.00       25.00       25.00       25.00       25.00    
  22    25.00       25.00       25.00       25.00       25.00       25.00       25.00       25.00       25.00       25.00    
        25.00       25.00       25.00       25.00       25.00       25.00       25.00       25.00       25.00       25.00    
        25.00       25.00       25.00       25.00       25.00       25.00       25.00       25.00       25.00       25.00    
        25.00       25.00       25.00       25.00       25.00       25.00       25.00       25.00       25.00       25.00    
  23    25.00       25.00       25.00       25.00       25.00       25.00       25.00       25.00       25.00       25.00    
        25.00       25.00       25.00       25.00       25.00       25.00       25.00       25.00       25.00       25.00    
        25.00       25.00       25.00       25.00       25.00       25.00       25.00       25.00       25.00       25.00    
        25.00       25.00       25.00       25.00       25.00       25.00       25.00       25.00       25.00       25.00    
  24    25.00       25.00       25.00       25.00       25.00       25.00       25.00       25.00       25.00       25.00    
        25.00       25.00       25.00       25.00       25.00       25.00       25.00       25.00       25.00       25.00    
        25.00       25.00       25.00       25.00       25.00       25.00       25.00       25.00       25.00       25.00    
        25.00       25.00       25.00       25.00       25.00       25.00       25.00       25.00       25.00       25.00    
  25    25.00       25.00       25.00       25.00       25.00       25.00       25.00       25.00       25.00       25.00    
        25.00       25.00       25.00       25.00       25.00       25.00       25.00       25.00       25.00       25.00    
        25.00       25.00       25.00       25.00       25.00       25.00       25.00       25.00       25.00       25.00    
        25.00       25.00       25.00       25.00       25.00       25.00       25.00       25.00       25.00       25.00    
  26    25.00       25.00       25.00       25.00       25.00       25.00       25.00       25.00       25.00       25.00    
        25.00       25.00       25.00       25.00       25.00       25.00       25.00       25.00       25.00       25.00    
        25.00       25.00       25.00       25.00       25.00       25.00       25.00       25.00       25.00       25.00    
        25.00       25.00       25.00       25.00       25.00       25.00       25.00       25.00       25.00       25.00    
  27    25.00       25.00       25.00       25.00       25.00       25.00       25.00       25.00       25.00       25.00    
        25.00       25.00       25.00       25.00       25.00       25.00       25.00       25.00       25.00       25.00    
        25.00       25.00       25.00       25.00       25.00       25.00       25.00       25.00       25.00       25.00    
        25.00       25.00       25.00       25.00       25.00       25.00       25.00       25.00       25.00       25.00    
  28    25.00       25.00       25.00       25.00       25.00       25.00       25.00       25.00       25.00       25.00    
        25.00       25.00       25.00       25.00       25.00       25.00       25.00       25.00       25.00       25.00    
        25.00       25.00       25.00       25.00       25.00       25.00       25.00       25.00       25.00       25.00    
        25.00       25.00       25.00       25.00       25.00       25.00       25.00       25.00       25.00       25.00    
  29    25.00       25.00       25.00       25.00       25.00       25.00       25.00       25.00       25.00       25.00    
        25.00       25.00       25.00       25.00       25.00       25.00       25.00       25.00       25.00       25.00    
        25.00       25.00       25.00       25.00       25.00       25.00       25.00       25.00       25.00       25.00    
        25.00       25.00       25.00       25.00       25.00       25.00       25.00       25.00       25.00       25.00    
  30    25.00       25.00       25.00       25.00       25.00       25.00       25.00       25.00       25.00       25.00    
        25.00       25.00       25.00       25.00       25.00       25.00       25.00       25.00       25.00       25.00    
        25.00       25.00       25.00       25.00       25.00       25.00       25.00       25.00       25.00       25.00    
        25.00       25.00       25.00       25.00       25.00       25.00       25.00       25.00       25.00       25.00    
  31    25.00       25.00       25.00       25.00       25.00       25.00       25.00       25.00       25.00       25.00    
        25.00       25.00       25.00       25.00       25.00       25.00       25.00       25.00       25.00       25.00    
        25.00       25.00       25.00       25.00       25.00       25.00       25.00       25.00       25.00       25.00    
        25.00       25.00       25.00       25.00       25.00       25.00       25.00       25.00       25.00       25.00    
  32    25.00       25.00       25.00       25.00       25.00       25.00       25.00       25.00       25.00       25.00    
        25.00       25.00       25.00       25.00       25.00       25.00       25.00       25.00       25.00       25.00    
        25.00       25.00       25.00       25.00       25.00       25.00       25.00       25.00       25.00       25.00    
        25.00       25.00       25.00       25.00       25.00       25.00       25.00       25.00       25.00       25.00    
  33    25.00       25.00       25.00       25.00       25.00       25.00       25.00       25.00       25.00       25.00    
        25.00       25.00       25.00       25.00       25.00       25.00       25.00       25.00       25.00       25.00    
        25.00       25.00       25.00       25.00       25.00       25.00       25.00       25.00       25.00       25.00    
        25.00       25.00       25.00       25.00       25.00       25.00       25.00       25.00       25.00       25.00    
  34    25.00       25.00       25.00       25.00       25.00       25.00       25.00       25.00       25.00       25.00    
        25.00       25.00       25.00       25.00       25.00       25.00       25.00       25.00       25.00       25.00    
        25.00       25.00       25.00       25.00       25.00       25.00       25.00       25.00       25.00       25.00    
        25.00       25.00       25.00       25.00       25.00       25.00       25.00       25.00       25.00       25.00    
  35    25.00       25.00       25.00       25.00       25.00       25.00       25.00       25.00       25.00       25.00    
        25.00       25.00       25.00       25.00       25.00       25.00       25.00       25.00       25.00       25.00    
        25.00       25.00       25.00       25.00       25.00       25.00       25.00       25.00       25.00       25.00    
        25.00       25.00       25.00       25.00       25.00       25.00       25.00       25.00       25.00       25.00    
  36    25.00       25.00       25.00       25.00       25.00       25.00       25.00       25.00       25.00       25.00    
        25.00       25.00       25.00       25.00       25.00       25.00       25.00       25.00       25.00       25.00    
        25.00       25.00       25.00       25.00       25.00       25.00       25.00       25.00       25.00       25.00    
        25.00       25.00       25.00       25.00       25.00       25.00       25.00       25.00       25.00       25.00    
  37    25.00       25.00       25.00       25.00       25.00       25.00       25.00       25.00       25.00       25.00    
        25.00       25.00       25.00       25.00       25.00       25.00       25.00       25.00       25.00       25.00    
        25.00       25.00       25.00       25.00       25.00       25.00       25.00       25.00       25.00       25.00    
        25.00       25.00       25.00       25.00       25.00       25.00       25.00       25.00       25.00       25.00    
  38    25.00       25.00       25.00       25.00       25.00       25.00       25.00       25.00       25.00       25.00    
        25.00       25.00       25.00       25.00       25.00       25.00       25.00       25.00       25.00       25.00    
        25.00       25.00       25.00       25.00       25.00       25.00       25.00       25.00       25.00       25.00    
        25.00       25.00       25.00       25.00       25.00       25.00       25.00       25.00       25.00       25.00    
  39    25.00       25.00       25.00       25.00       25.00       25.00       25.00       25.00       25.00       25.00    
        25.00       25.00       25.00       25.00       25.00       25.00       25.00       25.00       25.00       25.00    
        25.00       25.00       25.00       25.00       25.00       25.00       25.00       25.00       25.00       25.00    
        25.00       25.00       25.00       25.00       25.00       25.00       25.00       25.00       25.00       25.00    
  40    25.00       25.00       25.00       25.00       25.00       25.00       25.00       25.00       25.00       25.00    
        25.00       25.00       25.00       25.00       25.00       25.00       25.00       25.00       25.00       25.00    
        25.00       25.00       25.00       25.00       25.00       25.00       25.00       25.00       25.00       25.00    
        25.00       25.00       25.00       25.00       25.00       25.00       25.00       25.00       25.00       25.00    
1
              HEAD IN LAYER 12 AT END OF TIME STEP 10 IN STRESS PERIOD 1
  ---------------------------------------------------------------------------

            1           2           3           4           5           6           7           8           9          10
           11          12          13          14          15          16          17          18          19          20
           21          22          23          24          25          26          27          28          29          30
           31          32          33          34          35          36          37          38          39          40
 ........................................................................................................................
   1    38.03       36.44       33.22       30.45       28.44       27.09       26.24       25.71       25.40       25.22    
        25.12       25.07       25.04       25.02       25.01       25.01       25.00       25.00       25.00       25.00    
        25.00       25.00       25.00       25.00       25.00       25.00       25.00       25.00       25.00       25.00    
        25.00       25.00       25.00       25.00       25.00       25.00       25.00       25.00       25.00       25.00    
   2    36.44       35.05       32.25       29.84       28.09       26.90       26.13       25.66       25.37       25.21    
        25.12       25.06       25.03       25.02       25.01       25.00       25.00       25.00       25.00       25.00    
        25.00       25.00       25.00       25.00       25.00       25.00       25.00       25.00       25.00       25.00    
        25.00       25.00       25.00       25.00       25.00       25.00       25.00       25.00       25.00       25.00    
   3    33.22       32.25       30.49       28.82       27.51       26.58       25.96       25.56       25.32       25.18    
        25.10       25.06       25.03       25.02       25.01       25.00       25.00       25.00       25.00       25.00    
        25.00       25.00       25.00       25.00       25.00       25.00       25.00       25.00       25.00       25.00    
        25.00       25.00       25.00       25.00       25.00       25.00       25.00       25.00       25.00       25.00    
   4    30.45       29.84       28.82       27.76       26.87       26.21       25.75       25.45       25.26       25.15    
        25.09       25.05       25.03       25.01       25.01       25.00       25.00       25.00       25.00       25.00    
        25.00       25.00       25.00       25.00       25.00       25.00       25.00       25.00       25.00       25.00    
        25.00       25.00       25.00       25.00       25.00       25.00       25.00       25.00       25.00       25.00    
   5    28.44       28.09       27.51       26.87       26.31       25.87       25.55       25.34       25.20       25.12    
        25.07       25.04       25.02       25.01       25.01       25.00       25.00       25.00       25.00       25.00    
        25.00       25.00       25.00       25.00       25.00       25.00       25.00       25.00       25.00       25.00    
        25.00       25.00       25.00       25.00       25.00       25.00       25.00       25.00       25.00       25.00    
   6    27.09       26.90       26.58       26.21       25.87       25.59       25.39       25.24       25.15       25.09    
        25.05       25.03       25.02       25.01       25.00       25.00       25.00       25.00       25.00       25.00    
        25.00       25.00       25.00       25.00       25.00       25.00       25.00       25.00       25.00       25.00    
        25.00       25.00       25.00       25.00       25.00       25.00       25.00       25.00       25.00       25.00    
   7    26.24       26.13       25.96       25.75       25.55       25.39       25.26       25.17       25.10       25.06    
        25.04       25.02       25.01       25.01       25.00       25.00       25.00       25.00       25.00       25.00    
        25.00       25.00       25.00       25.00       25.00       25.00       25.00       25.00       25.00       25.00    
        25.00       25.00       25.00       25.00       25.00       25.00       25.00       25.00       25.00       25.00    
   8    25.71       25.66       25.56       25.45       25.34       25.24       25.17       25.11       25.07       25.04    
        25.03       25.02       25.01       25.00       25.00       25.00       25.00       25.00       25.00       25.00    
        25.00       25.00       25.00       25.00       25.00       25.00       25.00       25.00       25.00       25.00    
        25.00       25.00       25.00       25.00       25.00       25.00       25.00       25.00       25.00       25.00    
   9    25.40       25.37       25.32       25.26       25.20       25.15       25.10       25.07       25.04       25.03    
        25.02       25.01       25.01       25.00       25.00       25.00       25.00       25.00       25.00       25.00    
        25.00       25.00       25.00       25.00       25.00       25.00       25.00       25.00       25.00       25.00    
        25.00       25.00       25.00       25.00       25.00       25.00       25.00       25.00       25.00       25.00    
  10    25.22       25.21       25.18       25.15       25.12       25.09       25.06       25.04       25.03       25.02    
        25.01       25.01       25.00       25.00       25.00       25.00       25.00       25.00       25.00       25.00    
        25.00       25.00       25.00       25.00       25.00       25.00       25.00       25.00       25.00       25.00    
        25.00       25.00       25.00       25.00       25.00       25.00       25.00       25.00       25.00       25.00    
  11    25.12       25.12       25.10       25.09       25.07       25.05       25.04       25.03       25.02       25.01    
        25.01       25.00       25.00       25.00       25.00       25.00       25.00       25.00       25.00       25.00    
        25.00       25.00       25.00       25.00       25.00       25.00       25.00       25.00       25.00       25.00    
        25.00       25.00       25.00       25.00       25.00       25.00       25.00       25.00       25.00       25.00    
  12    25.07       25.06       25.06       25.05       25.04       25.03       25.02       25.02       25.01       25.01    
        25.00       25.00       25.00       25.00       25.00       25.00       25.00       25.00       25.00       25.00    
        25.00       25.00       25.00       25.00       25.00       25.00       25.00       25.00       25.00       25.00    
        25.00       25.00       25.00       25.00       25.00       25.00       25.00       25.00       25.00       25.00    
  13    25.04       25.03       25.03       25.03       25.02       25.02       25.01       25.01       25.01       25.00    
        25.00       25.00       25.00       25.00       25.00       25.00       25.00       25.00       25.00       25.00    
        25.00       25.00       25.00       25.00       25.00       25.00       25.00       25.00       25.00       25.00    
        25.00       25.00       25.00       25.00       25.00       25.00       25.00       25.00       25.00       25.00    
  14    25.02       25.02       25.02       25.01       25.01       25.01       25.01       25.00       25.00       25.00    
        25.00       25.00       25.00       25.00       25.00       25.00       25.00       25.00       25.00       25.00    
        25.00       25.00       25.00       25.00       25.00       25.00       25.00       25.00       25.00       25.00    
        25.00       25.00       25.00       25.00       25.00       25.00       25.00       25.00       25.00       25.00    
  15    25.01       25.01       25.01       25.01       25.01       25.00       25.00       25.00       25.00       25.00    
        25.00       25.00       25.00       25.00       25.00       25.00       25.00       25.00       25.00       25.00    
        25.00       25.00       25.00       25.00       25.00       25.00       25.00       25.00       25.00       25.00    
        25.00       25.00       25.00       25.00       25.00       25.00       25.00       25.00       25.00       25.00    
  16    25.01       25.00       25.00       25.00       25.00       25.00       25.00       25.00       25.00       25.00    
        25.00       25.00       25.00       25.00       25.00       25.00       25.00       25.00       25.00       25.00    
        25.00       25.00       25.00       25.00       25.00       25.00       25.00       25.00       25.00       25.00    
        25.00       25.00       25.00       25.00       25.00       25.00       25.00       25.00       25.00       25.00    
  17    25.00       25.00       25.00       25.00       25.00       25.00       25.00       25.00       25.00       25.00    
        25.00       25.00       25.00       25.00       25.00       25.00       25.00       25.00       25.00       25.00    
        25.00       25.00       25.00       25.00       25.00       25.00       25.00       25.00       25.00       25.00    
        25.00       25.00       25.00       25.00       25.00       25.00       25.00       25.00       25.00       25.00    
  18    25.00       25.00       25.00       25.00       25.00       25.00       25.00       25.00       25.00       25.00    
        25.00       25.00       25.00       25.00       25.00       25.00       25.00       25.00       25.00       25.00    
        25.00       25.00       25.00       25.00       25.00       25.00       25.00       25.00       25.00       25.00    
        25.00       25.00       25.00       25.00       25.00       25.00       25.00       25.00       25.00       25.00    
  19    25.00       25.00       25.00       25.00       25.00       25.00       25.00       25.00       25.00       25.00    
        25.00       25.00       25.00       25.00       25.00       25.00       25.00       25.00       25.00       25.00    
        25.00       25.00       25.00       25.00       25.00       25.00       25.00       25.00       25.00       25.00    
        25.00       25.00       25.00       25.00       25.00       25.00       25.00       25.00       25.00       25.00    
  20    25.00       25.00       25.00       25.00       25.00       25.00       25.00       25.00       25.00       25.00    
        25.00       25.00       25.00       25.00       25.00       25.00       25.00       25.00       25.00       25.00    
        25.00       25.00       25.00       25.00       25.00       25.00       25.00       25.00       25.00       25.00    
        25.00       25.00       25.00       25.00       25.00       25.00       25.00       25.00       25.00       25.00    
  21    25.00       25.00       25.00       25.00       25.00       25.00       25.00       25.00       25.00       25.00    
        25.00       25.00       25.00       25.00       25.00       25.00       25.00       25.00       25.00       25.00    
        25.00       25.00       25.00       25.00       25.00       25.00       25.00       25.00       25.00       25.00    
        25.00       25.00       25.00       25.00       25.00       25.00       25.00       25.00       25.00       25.00    
  22    25.00       25.00       25.00       25.00       25.00       25.00       25.00       25.00       25.00       25.00    
        25.00       25.00       25.00       25.00       25.00       25.00       25.00       25.00       25.00       25.00    
        25.00       25.00       25.00       25.00       25.00       25.00       25.00       25.00       25.00       25.00    
        25.00       25.00       25.00       25.00       25.00       25.00       25.00       25.00       25.00       25.00    
  23    25.00       25.00       25.00       25.00       25.00       25.00       25.00       25.00       25.00       25.00    
        25.00       25.00       25.00       25.00       25.00       25.00       25.00       25.00       25.00       25.00    
        25.00       25.00       25.00       25.00       25.00       25.00       25.00       25.00       25.00       25.00    
        25.00       25.00       25.00       25.00       25.00       25.00       25.00       25.00       25.00       25.00    
  24    25.00       25.00       25.00       25.00       25.00       25.00       25.00       25.00       25.00       25.00    
        25.00       25.00       25.00       25.00       25.00       25.00       25.00       25.00       25.00       25.00    
        25.00       25.00       25.00       25.00       25.00       25.00       25.00       25.00       25.00       25.00    
        25.00       25.00       25.00       25.00       25.00       25.00       25.00       25.00       25.00       25.00    
  25    25.00       25.00       25.00       25.00       25.00       25.00       25.00       25.00       25.00       25.00    
        25.00       25.00       25.00       25.00       25.00       25.00       25.00       25.00       25.00       25.00    
        25.00       25.00       25.00       25.00       25.00       25.00       25.00       25.00       25.00       25.00    
        25.00       25.00       25.00       25.00       25.00       25.00       25.00       25.00       25.00       25.00    
  26    25.00       25.00       25.00       25.00       25.00       25.00       25.00       25.00       25.00       25.00    
        25.00       25.00       25.00       25.00       25.00       25.00       25.00       25.00       25.00       25.00    
        25.00       25.00       25.00       25.00       25.00       25.00       25.00       25.00       25.00       25.00    
        25.00       25.00       25.00       25.00       25.00       25.00       25.00       25.00       25.00       25.00    
  27    25.00       25.00       25.00       25.00       25.00       25.00       25.00       25.00       25.00       25.00    
        25.00       25.00       25.00       25.00       25.00       25.00       25.00       25.00       25.00       25.00    
        25.00       25.00       25.00       25.00       25.00       25.00       25.00       25.00       25.00       25.00    
        25.00       25.00       25.00       25.00       25.00       25.00       25.00       25.00       25.00       25.00    
  28    25.00       25.00       25.00       25.00       25.00       25.00       25.00       25.00       25.00       25.00    
        25.00       25.00       25.00       25.00       25.00       25.00       25.00       25.00       25.00       25.00    
        25.00       25.00       25.00       25.00       25.00       25.00       25.00       25.00       25.00       25.00    
        25.00       25.00       25.00       25.00       25.00       25.00       25.00       25.00       25.00       25.00    
  29    25.00       25.00       25.00       25.00       25.00       25.00       25.00       25.00       25.00       25.00    
        25.00       25.00       25.00       25.00       25.00       25.00       25.00       25.00       25.00       25.00    
        25.00       25.00       25.00       25.00       25.00       25.00       25.00       25.00       25.00       25.00    
        25.00       25.00       25.00       25.00       25.00       25.00       25.00       25.00       25.00       25.00    
  30    25.00       25.00       25.00       25.00       25.00       25.00       25.00       25.00       25.00       25.00    
        25.00       25.00       25.00       25.00       25.00       25.00       25.00       25.00       25.00       25.00    
        25.00       25.00       25.00       25.00       25.00       25.00       25.00       25.00       25.00       25.00    
        25.00       25.00       25.00       25.00       25.00       25.00       25.00       25.00       25.00       25.00    
  31    25.00       25.00       25.00       25.00       25.00       25.00       25.00       25.00       25.00       25.00    
        25.00       25.00       25.00       25.00       25.00       25.00       25.00       25.00       25.00       25.00    
        25.00       25.00       25.00       25.00       25.00       25.00       25.00       25.00       25.00       25.00    
        25.00       25.00       25.00       25.00       25.00       25.00       25.00       25.00       25.00       25.00    
  32    25.00       25.00       25.00       25.00       25.00       25.00       25.00       25.00       25.00       25.00    
        25.00       25.00       25.00       25.00       25.00       25.00       25.00       25.00       25.00       25.00    
        25.00       25.00       25.00       25.00       25.00       25.00       25.00       25.00       25.00       25.00    
        25.00       25.00       25.00       25.00       25.00       25.00       25.00       25.00       25.00       25.00    
  33    25.00       25.00       25.00       25.00       25.00       25.00       25.00       25.00       25.00       25.00    
        25.00       25.00       25.00       25.00       25.00       25.00       25.00       25.00       25.00       25.00    
        25.00       25.00       25.00       25.00       25.00       25.00       25.00       25.00       25.00       25.00    
        25.00       25.00       25.00       25.00       25.00       25.00       25.00       25.00       25.00       25.00    
  34    25.00       25.00       25.00       25.00       25.00       25.00       25.00       25.00       25.00       25.00    
        25.00       25.00       25.00       25.00       25.00       25.00       25.00       25.00       25.00       25.00    
        25.00       25.00       25.00       25.00       25.00       25.00       25.00       25.00       25.00       25.00    
        25.00       25.00       25.00       25.00       25.00       25.00       25.00       25.00       25.00       25.00    
  35    25.00       25.00       25.00       25.00       25.00       25.00       25.00       25.00       25.00       25.00    
        25.00       25.00       25.00       25.00       25.00       25.00       25.00       25.00       25.00       25.00    
        25.00       25.00       25.00       25.00       25.00       25.00       25.00       25.00       25.00       25.00    
        25.00       25.00       25.00       25.00       25.00       25.00       25.00       25.00       25.00       25.00    
  36    25.00       25.00       25.00       25.00       25.00       25.00       25.00       25.00       25.00       25.00    
        25.00       25.00       25.00       25.00       25.00       25.00       25.00       25.00       25.00       25.00    
        25.00       25.00       25.00       25.00       25.00       25.00       25.00       25.00       25.00       25.00    
        25.00       25.00       25.00       25.00       25.00       25.00       25.00       25.00       25.00       25.00    
  37    25.00       25.00       25.00       25.00       25.00       25.00       25.00       25.00       25.00       25.00    
        25.00       25.00       25.00       25.00       25.00       25.00       25.00       25.00       25.00       25.00    
        25.00       25.00       25.00       25.00       25.00       25.00       25.00       25.00       25.00       25.00    
        25.00       25.00       25.00       25.00       25.00       25.00       25.00       25.00       25.00       25.00    
  38    25.00       25.00       25.00       25.00       25.00       25.00       25.00       25.00       25.00       25.00    
        25.00       25.00       25.00       25.00       25.00       25.00       25.00       25.00       25.00       25.00    
        25.00       25.00       25.00       25.00       25.00       25.00       25.00       25.00       25.00       25.00    
        25.00       25.00       25.00       25.00       25.00       25.00       25.00       25.00       25.00       25.00    
  39    25.00       25.00       25.00       25.00       25.00       25.00       25.00       25.00       25.00       25.00    
        25.00       25.00       25.00       25.00       25.00       25.00       25.00       25.00       25.00       25.00    
        25.00       25.00       25.00       25.00       25.00       25.00       25.00       25.00       25.00       25.00    
        25.00       25.00       25.00       25.00       25.00       25.00       25.00       25.00       25.00       25.00    
  40    25.00       25.00       25.00       25.00       25.00       25.00       25.00       25.00       25.00       25.00    
        25.00       25.00       25.00       25.00       25.00       25.00       25.00       25.00       25.00       25.00    
        25.00       25.00       25.00       25.00       25.00       25.00       25.00       25.00       25.00       25.00    
        25.00       25.00       25.00       25.00       25.00       25.00       25.00       25.00       25.00       25.00    
1
              HEAD IN LAYER 13 AT END OF TIME STEP 10 IN STRESS PERIOD 1
  ---------------------------------------------------------------------------

            1           2           3           4           5           6           7           8           9          10
           11          12          13          14          15          16          17          18          19          20
           21          22          23          24          25          26          27          28          29          30
           31          32          33          34          35          36          37          38          39          40
 ........................................................................................................................
   1    37.83       36.26       33.18       30.45       28.46       27.11       26.25       25.72       25.41       25.23    
        25.12       25.07       25.04       25.02       25.01       25.01       25.00       25.00       25.00       25.00    
        25.00       25.00       25.00       25.00       25.00       25.00       25.00       25.00       25.00       25.00    
        25.00       25.00       25.00       25.00       25.00       25.00       25.00       25.00       25.00       25.00    
   2    36.26       34.89       32.22       29.85       28.11       26.92       26.15       25.67       25.38       25.21    
        25.12       25.06       25.03       25.02       25.01       25.00       25.00       25.00       25.00       25.00    
        25.00       25.00       25.00       25.00       25.00       25.00       25.00       25.00       25.00       25.00    
        25.00       25.00       25.00       25.00       25.00       25.00       25.00       25.00       25.00       25.00    
   3    33.18       32.22       30.50       28.84       27.53       26.59       25.97       25.57       25.33       25.19    
        25.10       25.06       25.03       25.02       25.01       25.00       25.00       25.00       25.00       25.00    
        25.00       25.00       25.00       25.00       25.00       25.00       25.00       25.00       25.00       25.00    
        25.00       25.00       25.00       25.00       25.00       25.00       25.00       25.00       25.00       25.00    
   4    30.45       29.85       28.84       27.78       26.89       26.22       25.76       25.46       25.27       25.15    
        25.09       25.05       25.03       25.01       25.01       25.00       25.00       25.00       25.00       25.00    
        25.00       25.00       25.00       25.00       25.00       25.00       25.00       25.00       25.00       25.00    
        25.00       25.00       25.00       25.00       25.00       25.00       25.00       25.00       25.00       25.00    
   5    28.46       28.11       27.53       26.89       26.33       25.88       25.56       25.35       25.21       25.12    
        25.07       25.04       25.02       25.01       25.01       25.00       25.00       25.00       25.00       25.00    
        25.00       25.00       25.00       25.00       25.00       25.00       25.00       25.00       25.00       25.00    
        25.00       25.00       25.00       25.00       25.00       25.00       25.00       25.00       25.00       25.00    
   6    27.11       26.92       26.59       26.22       25.88       25.60       25.39       25.25       25.15       25.09    
        25.05       25.03       25.02       25.01       25.00       25.00       25.00       25.00       25.00       25.00    
        25.00       25.00       25.00       25.00       25.00       25.00       25.00       25.00       25.00       25.00    
        25.00       25.00       25.00       25.00       25.00       25.00       25.00       25.00       25.00       25.00    
   7    26.25       26.15       25.97       25.76       25.56       25.39       25.26       25.17       25.11       25.06    
        25.04       25.02       25.01       25.01       25.00       25.00       25.00       25.00       25.00       25.00    
        25.00       25.00       25.00       25.00       25.00       25.00       25.00       25.00       25.00       25.00    
        25.00       25.00       25.00       25.00       25.00       25.00       25.00       25.00       25.00       25.00    
   8    25.72       25.67       25.57       25.46       25.35       25.25       25.17       25.11       25.07       25.04    
        25.03       25.02       25.01       25.01       25.00       25.00       25.00       25.00       25.00       25.00    
        25.00       25.00       25.00       25.00       25.00       25.00       25.00       25.00       25.00       25.00    
        25.00       25.00       25.00       25.00       25.00       25.00       25.00       25.00       25.00       25.00    
   9    25.41       25.38       25.33       25.27       25.21       25.15       25.11       25.07       25.05       25.03    
        25.02       25.01       25.01       25.00       25.00       25.00       25.00       25.00       25.00       25.00    
        25.00       25.00       25.00       25.00       25.00       25.00       25.00       25.00       25.00       25.00    
        25.00       25.00       25.00       25.00       25.00       25.00       25.00       25.00       25.00       25.00    
  10    25.23       25.21       25.19       25.15       25.12       25.09       25.06       25.04       25.03       25.02    
        25.01       25.01       25.00       25.00       25.00       25.00       25.00       25.00       25.00       25.00    
        25.00       25.00       25.00       25.00       25.00       25.00       25.00       25.00       25.00       25.00    
        25.00       25.00       25.00       25.00       25.00       25.00       25.00       25.00       25.00       25.00    
  11    25.12       25.12       25.10       25.09       25.07       25.05       25.04       25.03       25.02       25.01    
        25.01       25.00       25.00       25.00       25.00       25.00       25.00       25.00       25.00       25.00    
        25.00       25.00       25.00       25.00       25.00       25.00       25.00       25.00       25.00       25.00    
        25.00       25.00       25.00       25.00       25.00       25.00       25.00       25.00       25.00       25.00    
  12    25.07       25.06       25.06       25.05       25.04       25.03       25.02       25.02       25.01       25.01    
        25.00       25.00       25.00       25.00       25.00       25.00       25.00       25.00       25.00       25.00    
        25.00       25.00       25.00       25.00       25.00       25.00       25.00       25.00       25.00       25.00    
        25.00       25.00       25.00       25.00       25.00       25.00       25.00       25.00       25.00       25.00    
  13    25.04       25.03       25.03       25.03       25.02       25.02       25.01       25.01       25.01       25.00    
        25.00       25.00       25.00       25.00       25.00       25.00       25.00       25.00       25.00       25.00    
        25.00       25.00       25.00       25.00       25.00       25.00       25.00       25.00       25.00       25.00    
        25.00       25.00       25.00       25.00       25.00       25.00       25.00       25.00       25.00       25.00    
  14    25.02       25.02       25.02       25.01       25.01       25.01       25.01       25.01       25.00       25.00    
        25.00       25.00       25.00       25.00       25.00       25.00       25.00       25.00       25.00       25.00    
        25.00       25.00       25.00       25.00       25.00       25.00       25.00       25.00       25.00       25.00    
        25.00       25.00       25.00       25.00       25.00       25.00       25.00       25.00       25.00       25.00    
  15    25.01       25.01       25.01       25.01       25.01       25.00       25.00       25.00       25.00       25.00    
        25.00       25.00       25.00       25.00       25.00       25.00       25.00       25.00       25.00       25.00    
        25.00       25.00       25.00       25.00       25.00       25.00       25.00       25.00       25.00       25.00    
        25.00       25.00       25.00       25.00       25.00       25.00       25.00       25.00       25.00       25.00    
  16    25.01       25.00       25.00       25.00       25.00       25.00       25.00       25.00       25.00       25.00    
        25.00       25.00       25.00       25.00       25.00       25.00       25.00       25.00       25.00       25.00    
        25.00       25.00       25.00       25.00       25.00       25.00       25.00       25.00       25.00       25.00    
        25.00       25.00       25.00       25.00       25.00       25.00       25.00       25.00       25.00       25.00    
  17    25.00       25.00       25.00       25.00       25.00       25.00       25.00       25.00       25.00       25.00    
        25.00       25.00       25.00       25.00       25.00       25.00       25.00       25.00       25.00       25.00    
        25.00       25.00       25.00       25.00       25.00       25.00       25.00       25.00       25.00       25.00    
        25.00       25.00       25.00       25.00       25.00       25.00       25.00       25.00       25.00       25.00    
  18    25.00       25.00       25.00       25.00       25.00       25.00       25.00       25.00       25.00       25.00    
        25.00       25.00       25.00       25.00       25.00       25.00       25.00       25.00       25.00       25.00    
        25.00       25.00       25.00       25.00       25.00       25.00       25.00       25.00       25.00       25.00    
        25.00       25.00       25.00       25.00       25.00       25.00       25.00       25.00       25.00       25.00    
  19    25.00       25.00       25.00       25.00       25.00       25.00       25.00       25.00       25.00       25.00    
        25.00       25.00       25.00       25.00       25.00       25.00       25.00       25.00       25.00       25.00    
        25.00       25.00       25.00       25.00       25.00       25.00       25.00       25.00       25.00       25.00    
        25.00       25.00       25.00       25.00       25.00       25.00       25.00       25.00       25.00       25.00    
  20    25.00       25.00       25.00       25.00       25.00       25.00       25.00       25.00       25.00       25.00    
        25.00       25.00       25.00       25.00       25.00       25.00       25.00       25.00       25.00       25.00    
        25.00       25.00       25.00       25.00       25.00       25.00       25.00       25.00       25.00       25.00    
        25.00       25.00       25.00       25.00       25.00       25.00       25.00       25.00       25.00       25.00    
  21    25.00       25.00       25.00       25.00       25.00       25.00       25.00       25.00       25.00       25.00    
        25.00       25.00       25.00       25.00       25.00       25.00       25.00       25.00       25.00       25.00    
        25.00       25.00       25.00       25.00       25.00       25.00       25.00       25.00       25.00       25.00    
        25.00       25.00       25.00       25.00       25.00       25.00       25.00       25.00       25.00       25.00    
  22    25.00       25.00       25.00       25.00       25.00       25.00       25.00       25.00       25.00       25.00    
        25.00       25.00       25.00       25.00       25.00       25.00       25.00       25.00       25.00       25.00    
        25.00       25.00       25.00       25.00       25.00       25.00       25.00       25.00       25.00       25.00    
        25.00       25.00       25.00       25.00       25.00       25.00       25.00       25.00       25.00       25.00    
  23    25.00       25.00       25.00       25.00       25.00       25.00       25.00       25.00       25.00       25.00    
        25.00       25.00       25.00       25.00       25.00       25.00       25.00       25.00       25.00       25.00    
        25.00       25.00       25.00       25.00       25.00       25.00       25.00       25.00       25.00       25.00    
        25.00       25.00       25.00       25.00       25.00       25.00       25.00       25.00       25.00       25.00    
  24    25.00       25.00       25.00       25.00       25.00       25.00       25.00       25.00       25.00       25.00    
        25.00       25.00       25.00       25.00       25.00       25.00       25.00       25.00       25.00       25.00    
        25.00       25.00       25.00       25.00       25.00       25.00       25.00       25.00       25.00       25.00    
        25.00       25.00       25.00       25.00       25.00       25.00       25.00       25.00       25.00       25.00    
  25    25.00       25.00       25.00       25.00       25.00       25.00       25.00       25.00       25.00       25.00    
        25.00       25.00       25.00       25.00       25.00       25.00       25.00       25.00       25.00       25.00    
        25.00       25.00       25.00       25.00       25.00       25.00       25.00       25.00       25.00       25.00    
        25.00       25.00       25.00       25.00       25.00       25.00       25.00       25.00       25.00       25.00    
  26    25.00       25.00       25.00       25.00       25.00       25.00       25.00       25.00       25.00       25.00    
        25.00       25.00       25.00       25.00       25.00       25.00       25.00       25.00       25.00       25.00    
        25.00       25.00       25.00       25.00       25.00       25.00       25.00       25.00       25.00       25.00    
        25.00       25.00       25.00       25.00       25.00       25.00       25.00       25.00       25.00       25.00    
  27    25.00       25.00       25.00       25.00       25.00       25.00       25.00       25.00       25.00       25.00    
        25.00       25.00       25.00       25.00       25.00       25.00       25.00       25.00       25.00       25.00    
        25.00       25.00       25.00       25.00       25.00       25.00       25.00       25.00       25.00       25.00    
        25.00       25.00       25.00       25.00       25.00       25.00       25.00       25.00       25.00       25.00    
  28    25.00       25.00       25.00       25.00       25.00       25.00       25.00       25.00       25.00       25.00    
        25.00       25.00       25.00       25.00       25.00       25.00       25.00       25.00       25.00       25.00    
        25.00       25.00       25.00       25.00       25.00       25.00       25.00       25.00       25.00       25.00    
        25.00       25.00       25.00       25.00       25.00       25.00       25.00       25.00       25.00       25.00    
  29    25.00       25.00       25.00       25.00       25.00       25.00       25.00       25.00       25.00       25.00    
        25.00       25.00       25.00       25.00       25.00       25.00       25.00       25.00       25.00       25.00    
        25.00       25.00       25.00       25.00       25.00       25.00       25.00       25.00       25.00       25.00    
        25.00       25.00       25.00       25.00       25.00       25.00       25.00       25.00       25.00       25.00    
  30    25.00       25.00       25.00       25.00       25.00       25.00       25.00       25.00       25.00       25.00    
        25.00       25.00       25.00       25.00       25.00       25.00       25.00       25.00       25.00       25.00    
        25.00       25.00       25.00       25.00       25.00       25.00       25.00       25.00       25.00       25.00    
        25.00       25.00       25.00       25.00       25.00       25.00       25.00       25.00       25.00       25.00    
  31    25.00       25.00       25.00       25.00       25.00       25.00       25.00       25.00       25.00       25.00    
        25.00       25.00       25.00       25.00       25.00       25.00       25.00       25.00       25.00       25.00    
        25.00       25.00       25.00       25.00       25.00       25.00       25.00       25.00       25.00       25.00    
        25.00       25.00       25.00       25.00       25.00       25.00       25.00       25.00       25.00       25.00    
  32    25.00       25.00       25.00       25.00       25.00       25.00       25.00       25.00       25.00       25.00    
        25.00       25.00       25.00       25.00       25.00       25.00       25.00       25.00       25.00       25.00    
        25.00       25.00       25.00       25.00       25.00       25.00       25.00       25.00       25.00       25.00    
        25.00       25.00       25.00       25.00       25.00       25.00       25.00       25.00       25.00       25.00    
  33    25.00       25.00       25.00       25.00       25.00       25.00       25.00       25.00       25.00       25.00    
        25.00       25.00       25.00       25.00       25.00       25.00       25.00       25.00       25.00       25.00    
        25.00       25.00       25.00       25.00       25.00       25.00       25.00       25.00       25.00       25.00    
        25.00       25.00       25.00       25.00       25.00       25.00       25.00       25.00       25.00       25.00    
  34    25.00       25.00       25.00       25.00       25.00       25.00       25.00       25.00       25.00       25.00    
        25.00       25.00       25.00       25.00       25.00       25.00       25.00       25.00       25.00       25.00    
        25.00       25.00       25.00       25.00       25.00       25.00       25.00       25.00       25.00       25.00    
        25.00       25.00       25.00       25.00       25.00       25.00       25.00       25.00       25.00       25.00    
  35    25.00       25.00       25.00       25.00       25.00       25.00       25.00       25.00       25.00       25.00    
        25.00       25.00       25.00       25.00       25.00       25.00       25.00       25.00       25.00       25.00    
        25.00       25.00       25.00       25.00       25.00       25.00       25.00       25.00       25.00       25.00    
        25.00       25.00       25.00       25.00       25.00       25.00       25.00       25.00       25.00       25.00    
  36    25.00       25.00       25.00       25.00       25.00       25.00       25.00       25.00       25.00       25.00    
        25.00       25.00       25.00       25.00       25.00       25.00       25.00       25.00       25.00       25.00    
        25.00       25.00       25.00       25.00       25.00       25.00       25.00       25.00       25.00       25.00    
        25.00       25.00       25.00       25.00       25.00       25.00       25.00       25.00       25.00       25.00    
  37    25.00       25.00       25.00       25.00       25.00       25.00       25.00       25.00       25.00       25.00    
        25.00       25.00       25.00       25.00       25.00       25.00       25.00       25.00       25.00       25.00    
        25.00       25.00       25.00       25.00       25.00       25.00       25.00       25.00       25.00       25.00    
        25.00       25.00       25.00       25.00       25.00       25.00       25.00       25.00       25.00       25.00    
  38    25.00       25.00       25.00       25.00       25.00       25.00       25.00       25.00       25.00       25.00    
        25.00       25.00       25.00       25.00       25.00       25.00       25.00       25.00       25.00       25.00    
        25.00       25.00       25.00       25.00       25.00       25.00       25.00       25.00       25.00       25.00    
        25.00       25.00       25.00       25.00       25.00       25.00       25.00       25.00       25.00       25.00    
  39    25.00       25.00       25.00       25.00       25.00       25.00       25.00       25.00       25.00       25.00    
        25.00       25.00       25.00       25.00       25.00       25.00       25.00       25.00       25.00       25.00    
        25.00       25.00       25.00       25.00       25.00       25.00       25.00       25.00       25.00       25.00    
        25.00       25.00       25.00       25.00       25.00       25.00       25.00       25.00       25.00       25.00    
  40    25.00       25.00       25.00       25.00       25.00       25.00       25.00       25.00       25.00       25.00    
        25.00       25.00       25.00       25.00       25.00       25.00       25.00       25.00       25.00       25.00    
        25.00       25.00       25.00       25.00       25.00       25.00       25.00       25.00       25.00       25.00    
        25.00       25.00       25.00       25.00       25.00       25.00       25.00       25.00       25.00       25.00    
1
              HEAD IN LAYER 14 AT END OF TIME STEP 10 IN STRESS PERIOD 1
  ---------------------------------------------------------------------------

            1           2           3           4           5           6           7           8           9          10
           11          12          13          14          15          16          17          18          19          20
           21          22          23          24          25          26          27          28          29          30
           31          32          33          34          35          36          37          38          39          40
 ........................................................................................................................
   1    37.73       36.17       33.16       30.46       28.47       27.12       26.26       25.73       25.41       25.23    
        25.13       25.07       25.04       25.02       25.01       25.01       25.00       25.00       25.00       25.00    
        25.00       25.00       25.00       25.00       25.00       25.00       25.00       25.00       25.00       25.00    
        25.00       25.00       25.00       25.00       25.00       25.00       25.00       25.00       25.00       25.00    
   2    36.17       34.81       32.20       29.86       28.12       26.93       26.15       25.67       25.38       25.21    
        25.12       25.06       25.03       25.02       25.01       25.01       25.00       25.00       25.00       25.00    
        25.00       25.00       25.00       25.00       25.00       25.00       25.00       25.00       25.00       25.00    
        25.00       25.00       25.00       25.00       25.00       25.00       25.00       25.00       25.00       25.00    
   3    33.16       32.20       30.50       28.85       27.54       26.60       25.98       25.58       25.33       25.19    
        25.10       25.06       25.03       25.02       25.01       25.00       25.00       25.00       25.00       25.00    
        25.00       25.00       25.00       25.00       25.00       25.00       25.00       25.00       25.00       25.00    
        25.00       25.00       25.00       25.00       25.00       25.00       25.00       25.00       25.00       25.00    
   4    30.46       29.86       28.85       27.79       26.90       26.23       25.77       25.46       25.27       25.16    
        25.09       25.05       25.03       25.01       25.01       25.00       25.00       25.00       25.00       25.00    
        25.00       25.00       25.00       25.00       25.00       25.00       25.00       25.00       25.00       25.00    
        25.00       25.00       25.00       25.00       25.00       25.00       25.00       25.00       25.00       25.00    
   5    28.47       28.12       27.54       26.90       26.33       25.89       25.57       25.35       25.21       25.12    
        25.07       25.04       25.02       25.01       25.01       25.00       25.00       25.00       25.00       25.00    
        25.00       25.00       25.00       25.00       25.00       25.00       25.00       25.00       25.00       25.00    
        25.00       25.00       25.00       25.00       25.00       25.00       25.00       25.00       25.00       25.00    
   6    27.12       26.93       26.60       26.23       25.89       25.61       25.40       25.25       25.15       25.09    
        25.05       25.03       25.02       25.01       25.01       25.00       25.00       25.00       25.00       25.00    
        25.00       25.00       25.00       25.00       25.00       25.00       25.00       25.00       25.00       25.00    
        25.00       25.00       25.00       25.00       25.00       25.00       25.00       25.00       25.00       25.00    
   7    26.26       26.15       25.98       25.77       25.57       25.40       25.26       25.17       25.11       25.06    
        25.04       25.02       25.01       25.01       25.00       25.00       25.00       25.00       25.00       25.00    
        25.00       25.00       25.00       25.00       25.00       25.00       25.00       25.00       25.00       25.00    
        25.00       25.00       25.00       25.00       25.00       25.00       25.00       25.00       25.00       25.00    
   8    25.73       25.67       25.58       25.46       25.35       25.25       25.17       25.11       25.07       25.04    
        25.03       25.02       25.01       25.01       25.00       25.00       25.00       25.00       25.00       25.00    
        25.00       25.00       25.00       25.00       25.00       25.00       25.00       25.00       25.00       25.00    
        25.00       25.00       25.00       25.00       25.00       25.00       25.00       25.00       25.00       25.00    
   9    25.41       25.38       25.33       25.27       25.21       25.15       25.11       25.07       25.05       25.03    
        25.02       25.01       25.01       25.00       25.00       25.00       25.00       25.00       25.00       25.00    
        25.00       25.00       25.00       25.00       25.00       25.00       25.00       25.00       25.00       25.00    
        25.00       25.00       25.00       25.00       25.00       25.00       25.00       25.00       25.00       25.00    
  10    25.23       25.21       25.19       25.16       25.12       25.09       25.06       25.04       25.03       25.02    
        25.01       25.01       25.00       25.00       25.00       25.00       25.00       25.00       25.00       25.00    
        25.00       25.00       25.00       25.00       25.00       25.00       25.00       25.00       25.00       25.00    
        25.00       25.00       25.00       25.00       25.00       25.00       25.00       25.00       25.00       25.00    
  11    25.13       25.12       25.10       25.09       25.07       25.05       25.04       25.03       25.02       25.01    
        25.01       25.00       25.00       25.00       25.00       25.00       25.00       25.00       25.00       25.00    
        25.00       25.00       25.00       25.00       25.00       25.00       25.00       25.00       25.00       25.00    
        25.00       25.00       25.00       25.00       25.00       25.00       25.00       25.00       25.00       25.00    
  12    25.07       25.06       25.06       25.05       25.04       25.03       25.02       25.02       25.01       25.01    
        25.00       25.00       25.00       25.00       25.00       25.00       25.00       25.00       25.00       25.00    
        25.00       25.00       25.00       25.00       25.00       25.00       25.00       25.00       25.00       25.00    
        25.00       25.00       25.00       25.00       25.00       25.00       25.00       25.00       25.00       25.00    
  13    25.04       25.03       25.03       25.03       25.02       25.02       25.01       25.01       25.01       25.00    
        25.00       25.00       25.00       25.00       25.00       25.00       25.00       25.00       25.00       25.00    
        25.00       25.00       25.00       25.00       25.00       25.00       25.00       25.00       25.00       25.00    
        25.00       25.00       25.00       25.00       25.00       25.00       25.00       25.00       25.00       25.00    
  14    25.02       25.02       25.02       25.01       25.01       25.01       25.01       25.01       25.00       25.00    
        25.00       25.00       25.00       25.00       25.00       25.00       25.00       25.00       25.00       25.00    
        25.00       25.00       25.00       25.00       25.00       25.00       25.00       25.00       25.00       25.00    
        25.00       25.00       25.00       25.00       25.00       25.00       25.00       25.00       25.00       25.00    
  15    25.01       25.01       25.01       25.01       25.01       25.01       25.00       25.00       25.00       25.00    
        25.00       25.00       25.00       25.00       25.00       25.00       25.00       25.00       25.00       25.00    
        25.00       25.00       25.00       25.00       25.00       25.00       25.00       25.00       25.00       25.00    
        25.00       25.00       25.00       25.00       25.00       25.00       25.00       25.00       25.00       25.00    
  16    25.01       25.01       25.00       25.00       25.00       25.00       25.00       25.00       25.00       25.00    
        25.00       25.00       25.00       25.00       25.00       25.00       25.00       25.00       25.00       25.00    
        25.00       25.00       25.00       25.00       25.00       25.00       25.00       25.00       25.00       25.00    
        25.00       25.00       25.00       25.00       25.00       25.00       25.00       25.00       25.00       25.00    
  17    25.00       25.00       25.00       25.00       25.00       25.00       25.00       25.00       25.00       25.00    
        25.00       25.00       25.00       25.00       25.00       25.00       25.00       25.00       25.00       25.00    
        25.00       25.00       25.00       25.00       25.00       25.00       25.00       25.00       25.00       25.00    
        25.00       25.00       25.00       25.00       25.00       25.00       25.00       25.00       25.00       25.00    
  18    25.00       25.00       25.00       25.00       25.00       25.00       25.00       25.00       25.00       25.00    
        25.00       25.00       25.00       25.00       25.00       25.00       25.00       25.00       25.00       25.00    
        25.00       25.00       25.00       25.00       25.00       25.00       25.00       25.00       25.00       25.00    
        25.00       25.00       25.00       25.00       25.00       25.00       25.00       25.00       25.00       25.00    
  19    25.00       25.00       25.00       25.00       25.00       25.00       25.00       25.00       25.00       25.00    
        25.00       25.00       25.00       25.00       25.00       25.00       25.00       25.00       25.00       25.00    
        25.00       25.00       25.00       25.00       25.00       25.00       25.00       25.00       25.00       25.00    
        25.00       25.00       25.00       25.00       25.00       25.00       25.00       25.00       25.00       25.00    
  20    25.00       25.00       25.00       25.00       25.00       25.00       25.00       25.00       25.00       25.00    
        25.00       25.00       25.00       25.00       25.00       25.00       25.00       25.00       25.00       25.00    
        25.00       25.00       25.00       25.00       25.00       25.00       25.00       25.00       25.00       25.00    
        25.00       25.00       25.00       25.00       25.00       25.00       25.00       25.00       25.00       25.00    
  21    25.00       25.00       25.00       25.00       25.00       25.00       25.00       25.00       25.00       25.00    
        25.00       25.00       25.00       25.00       25.00       25.00       25.00       25.00       25.00       25.00    
        25.00       25.00       25.00       25.00       25.00       25.00       25.00       25.00       25.00       25.00    
        25.00       25.00       25.00       25.00       25.00       25.00       25.00       25.00       25.00       25.00    
  22    25.00       25.00       25.00       25.00       25.00       25.00       25.00       25.00       25.00       25.00    
        25.00       25.00       25.00       25.00       25.00       25.00       25.00       25.00       25.00       25.00    
        25.00       25.00       25.00       25.00       25.00       25.00       25.00       25.00       25.00       25.00    
        25.00       25.00       25.00       25.00       25.00       25.00       25.00       25.00       25.00       25.00    
  23    25.00       25.00       25.00       25.00       25.00       25.00       25.00       25.00       25.00       25.00    
        25.00       25.00       25.00       25.00       25.00       25.00       25.00       25.00       25.00       25.00    
        25.00       25.00       25.00       25.00       25.00       25.00       25.00       25.00       25.00       25.00    
        25.00       25.00       25.00       25.00       25.00       25.00       25.00       25.00       25.00       25.00    
  24    25.00       25.00       25.00       25.00       25.00       25.00       25.00       25.00       25.00       25.00    
        25.00       25.00       25.00       25.00       25.00       25.00       25.00       25.00       25.00       25.00    
        25.00       25.00       25.00       25.00       25.00       25.00       25.00       25.00       25.00       25.00    
        25.00       25.00       25.00       25.00       25.00       25.00       25.00       25.00       25.00       25.00    
  25    25.00       25.00       25.00       25.00       25.00       25.00       25.00       25.00       25.00       25.00    
        25.00       25.00       25.00       25.00       25.00       25.00       25.00       25.00       25.00       25.00    
        25.00       25.00       25.00       25.00       25.00       25.00       25.00       25.00       25.00       25.00    
        25.00       25.00       25.00       25.00       25.00       25.00       25.00       25.00       25.00       25.00    
  26    25.00       25.00       25.00       25.00       25.00       25.00       25.00       25.00       25.00       25.00    
        25.00       25.00       25.00       25.00       25.00       25.00       25.00       25.00       25.00       25.00    
        25.00       25.00       25.00       25.00       25.00       25.00       25.00       25.00       25.00       25.00    
        25.00       25.00       25.00       25.00       25.00       25.00       25.00       25.00       25.00       25.00    
  27    25.00       25.00       25.00       25.00       25.00       25.00       25.00       25.00       25.00       25.00    
        25.00       25.00       25.00       25.00       25.00       25.00       25.00       25.00       25.00       25.00    
        25.00       25.00       25.00       25.00       25.00       25.00       25.00       25.00       25.00       25.00    
        25.00       25.00       25.00       25.00       25.00       25.00       25.00       25.00       25.00       25.00    
  28    25.00       25.00       25.00       25.00       25.00       25.00       25.00       25.00       25.00       25.00    
        25.00       25.00       25.00       25.00       25.00       25.00       25.00       25.00       25.00       25.00    
        25.00       25.00       25.00       25.00       25.00       25.00       25.00       25.00       25.00       25.00    
        25.00       25.00       25.00       25.00       25.00       25.00       25.00       25.00       25.00       25.00    
  29    25.00       25.00       25.00       25.00       25.00       25.00       25.00       25.00       25.00       25.00    
        25.00       25.00       25.00       25.00       25.00       25.00       25.00       25.00       25.00       25.00    
        25.00       25.00       25.00       25.00       25.00       25.00       25.00       25.00       25.00       25.00    
        25.00       25.00       25.00       25.00       25.00       25.00       25.00       25.00       25.00       25.00    
  30    25.00       25.00       25.00       25.00       25.00       25.00       25.00       25.00       25.00       25.00    
        25.00       25.00       25.00       25.00       25.00       25.00       25.00       25.00       25.00       25.00    
        25.00       25.00       25.00       25.00       25.00       25.00       25.00       25.00       25.00       25.00    
        25.00       25.00       25.00       25.00       25.00       25.00       25.00       25.00       25.00       25.00    
  31    25.00       25.00       25.00       25.00       25.00       25.00       25.00       25.00       25.00       25.00    
        25.00       25.00       25.00       25.00       25.00       25.00       25.00       25.00       25.00       25.00    
        25.00       25.00       25.00       25.00       25.00       25.00       25.00       25.00       25.00       25.00    
        25.00       25.00       25.00       25.00       25.00       25.00       25.00       25.00       25.00       25.00    
  32    25.00       25.00       25.00       25.00       25.00       25.00       25.00       25.00       25.00       25.00    
        25.00       25.00       25.00       25.00       25.00       25.00       25.00       25.00       25.00       25.00    
        25.00       25.00       25.00       25.00       25.00       25.00       25.00       25.00       25.00       25.00    
        25.00       25.00       25.00       25.00       25.00       25.00       25.00       25.00       25.00       25.00    
  33    25.00       25.00       25.00       25.00       25.00       25.00       25.00       25.00       25.00       25.00    
        25.00       25.00       25.00       25.00       25.00       25.00       25.00       25.00       25.00       25.00    
        25.00       25.00       25.00       25.00       25.00       25.00       25.00       25.00       25.00       25.00    
        25.00       25.00       25.00       25.00       25.00       25.00       25.00       25.00       25.00       25.00    
  34    25.00       25.00       25.00       25.00       25.00       25.00       25.00       25.00       25.00       25.00    
        25.00       25.00       25.00       25.00       25.00       25.00       25.00       25.00       25.00       25.00    
        25.00       25.00       25.00       25.00       25.00       25.00       25.00       25.00       25.00       25.00    
        25.00       25.00       25.00       25.00       25.00       25.00       25.00       25.00       25.00       25.00    
  35    25.00       25.00       25.00       25.00       25.00       25.00       25.00       25.00       25.00       25.00    
        25.00       25.00       25.00       25.00       25.00       25.00       25.00       25.00       25.00       25.00    
        25.00       25.00       25.00       25.00       25.00       25.00       25.00       25.00       25.00       25.00    
        25.00       25.00       25.00       25.00       25.00       25.00       25.00       25.00       25.00       25.00    
  36    25.00       25.00       25.00       25.00       25.00       25.00       25.00       25.00       25.00       25.00    
        25.00       25.00       25.00       25.00       25.00       25.00       25.00       25.00       25.00       25.00    
        25.00       25.00       25.00       25.00       25.00       25.00       25.00       25.00       25.00       25.00    
        25.00       25.00       25.00       25.00       25.00       25.00       25.00       25.00       25.00       25.00    
  37    25.00       25.00       25.00       25.00       25.00       25.00       25.00       25.00       25.00       25.00    
        25.00       25.00       25.00       25.00       25.00       25.00       25.00       25.00       25.00       25.00    
        25.00       25.00       25.00       25.00       25.00       25.00       25.00       25.00       25.00       25.00    
        25.00       25.00       25.00       25.00       25.00       25.00       25.00       25.00       25.00       25.00    
  38    25.00       25.00       25.00       25.00       25.00       25.00       25.00       25.00       25.00       25.00    
        25.00       25.00       25.00       25.00       25.00       25.00       25.00       25.00       25.00       25.00    
        25.00       25.00       25.00       25.00       25.00       25.00       25.00       25.00       25.00       25.00    
        25.00       25.00       25.00       25.00       25.00       25.00       25.00       25.00       25.00       25.00    
  39    25.00       25.00       25.00       25.00       25.00       25.00       25.00       25.00       25.00       25.00    
        25.00       25.00       25.00       25.00       25.00       25.00       25.00       25.00       25.00       25.00    
        25.00       25.00       25.00       25.00       25.00       25.00       25.00       25.00       25.00       25.00    
        25.00       25.00       25.00       25.00       25.00       25.00       25.00       25.00       25.00       25.00    
  40    25.00       25.00       25.00       25.00       25.00       25.00       25.00       25.00       25.00       25.00    
        25.00       25.00       25.00       25.00       25.00       25.00       25.00       25.00       25.00       25.00    
        25.00       25.00       25.00       25.00       25.00       25.00       25.00       25.00       25.00       25.00    
        25.00       25.00       25.00       25.00       25.00       25.00       25.00       25.00       25.00       25.00    

 HEAD WILL BE SAVED ON UNIT   51 AT END OF TIME STEP   10, STRESS PERIOD    1
1
  VOLUMETRIC BUDGET FOR ENTIRE MODEL AT END OF TIME STEP   10, STRESS PERIOD   1
  ------------------------------------------------------------------------------

     CUMULATIVE VOLUMES      L**3       RATES FOR THIS TIME STEP      L**3/T
     ------------------                 ------------------------

           IN:                                      IN:
           ---                                      ---
             STORAGE     =       8.9200E-02               STORAGE     =       2.9745E-04
       CONSTANT HEAD     =       6.8556E-10         CONSTANT HEAD     =           0.0000
            RECHARGE     =      593750.0000              RECHARGE     =        3125.0000

                TOTAL IN =      593750.0625                  TOTAL IN =        3125.0002

          OUT:                                     OUT:
          ----                                     ----
             STORAGE     =      593753.0625               STORAGE     =        3124.9966
       CONSTANT HEAD     =           0.4605         CONSTANT HEAD     =       3.5870E-03
            RECHARGE     =           0.0000              RECHARGE     =           0.0000

               TOTAL OUT =      593753.5000                 TOTAL OUT =        3125.0002

                IN - OUT =          -3.4375                  IN - OUT =           0.0000

     PERCENT DISCREPANCY =          -0.00         PERCENT DISCREPANCY =           0.00






         TIME SUMMARY AT END OF TIME STEP   10 IN STRESS PERIOD    1
                    SECONDS     MINUTES      HOURS       DAYS        YEARS
                    -----------------------------------------------------------
   TIME STEP LENGTH 1.64160E+06  27360.      456.00      19.000     5.20192E-02
 STRESS PERIOD TIME 1.64160E+07 2.73600E+05  4560.0      190.00     0.52019    
         TOTAL TIME 1.64160E+07 2.73600E+05  4560.0      190.00     0.52019    
1
1
                            STRESS PERIOD NO.    2, LENGTH =   518.0000    
                            -----------------------------------------------

                              NUMBER OF TIME STEPS =     2

                               MULTIPLIER FOR DELT =     1.000

                            INITIAL TIME STEP SIZE =   259.0000    

 REUSING RECH FROM LAST STRESS PERIOD
 
 SOLVING FOR HEAD 
                                                   Max.-Head-Change                        Max.-Flux-Residual
  Residual-Control   Outer-Iter.   Inner-Iter.     Column Row Layer    Max.-Head-Change    Column Row Layer    Max.-Flux-Residual            L2-New               L2-Old           Solver-Max-Delh
          0                 1           4             1    3     1       0.4689632976E+01       1    1    6       0.1025283730E+03      0.3984177973E+03      0.2122636198E-01      0.4689632976E+01
          0                 2           4             1    3     6      -0.8342694042E+00       1    3    7      -0.1853162462E+03      0.5104944907E+03      0.3984177973E+03     -0.8342694042E+00
          0                 3           3             1    3     6       0.5455753117E-01       2    2    6       0.1089747638E+02      0.3858568662E+02      0.5104944907E+03      0.5455753117E-01
          0                 4           2             1    1     6      -0.2266309480E-02       1    1    6      -0.4573239234E+00      0.1645315710E+01      0.3858568662E+02     -0.2266309480E-02
          0                 5           1             1    1     6       0.2483601681E-04       1    2    7       0.3292435424E-01      0.6510515784E-01      0.1645315710E+01      0.2483601681E-04

    ------------------------------------------------
       NWT REQUIRED            5 OUTER ITERATIONS 
       AND A TOTAL OF         14 INNER ITERATIONS.
    ------------------------------------------------

 NO OUTPUT CONTROL FOR STRESS PERIOD    2   TIME STEP    1
 
 SOLVING FOR HEAD 
                                                   Max.-Head-Change                        Max.-Flux-Residual
  Residual-Control   Outer-Iter.   Inner-Iter.     Column Row Layer    Max.-Head-Change    Column Row Layer    Max.-Flux-Residual            L2-New               L2-Old           Solver-Max-Delh
          0                 1           4             3    3     7       0.2667147477E+01       4    1    8       0.4523406219E+02      0.2548935772E+03      0.6510515784E-01      0.2667147477E+01
          0                 2           3             1    2     5      -0.4261243479E+00       1    2    5      -0.7206500367E+02      0.2500042055E+03      0.2548935772E+03     -0.4261243479E+00
          0                 3           2             2    1     5       0.2453892702E-01       3    3    7       0.3902553243E+01      0.1588415299E+02      0.2500042055E+03      0.2453892702E-01
          0                 4           1             2    1     5      -0.8619295733E-03       7    3    9       0.1876497908E+00      0.7137711246E+00      0.1588415299E+02     -0.8619295733E-03
          0                 5           1             3    7     9      -0.2538631694E-04       3    7    9      -0.7186202824E-02      0.1514473122E-01      0.7137711246E+00     -0.2538631694E-04

    ------------------------------------------------
       NWT REQUIRED            5 OUTER ITERATIONS 
       AND A TOTAL OF         11 INNER ITERATIONS.
    ------------------------------------------------

 OUTPUT CONTROL FOR STRESS PERIOD    2   TIME STEP    2
    SAVE BUDGET
    PRINT HEAD FOR ALL LAYERS
    PRINT BUDGET
    SAVE HEAD FOR ALL LAYERS
 UBDSV1 SAVING "         STORAGE" ON UNIT  32 AT TIME STEP 2, STRESS PERIOD 2
 UBDSV2 SAVING "   CONSTANT HEAD" ON UNIT  32 AT TIME STEP 2, STRESS PERIOD 2
 UBDSV1 SAVING "FLOW RIGHT FACE " ON UNIT  32 AT TIME STEP 2, STRESS PERIOD 2
 UBDSV1 SAVING "FLOW FRONT FACE " ON UNIT  32 AT TIME STEP 2, STRESS PERIOD 2
 UBDSV1 SAVING "FLOW LOWER FACE " ON UNIT  32 AT TIME STEP 2, STRESS PERIOD 2
 UBDSV3 SAVING "        RECHARGE" ON UNIT  32 AT TIME STEP 2, STRESS PERIOD 2
1
              HEAD IN LAYER 1 AT END OF TIME STEP 2 IN STRESS PERIOD 2
  ---------------------------------------------------------------------------

            1           2           3           4           5           6           7           8           9          10
           11          12          13          14          15          16          17          18          19          20
           21          22          23          24          25          26          27          28          29          30
           31          32          33          34          35          36          37          38          39          40
 ........................................................................................................................
   1   -99.90      -99.90      -99.90      -99.90      -99.90      -99.90      -99.90      -99.90      -99.90      -99.90    
       -99.90      -99.90      -99.90      -99.90      -99.90      -99.90      -99.90      -99.90      -99.90      -99.90    
       -99.90      -99.90      -99.90      -99.90      -99.90      -99.90      -99.90      -99.90      -99.90      -99.90    
       -99.90      -99.90      -99.90      -99.90      -99.90      -99.90      -99.90      -99.90      -99.90      -99.90    
   2   -99.90      -99.90      -99.90      -99.90      -99.90      -99.90      -99.90      -99.90      -99.90      -99.90    
       -99.90      -99.90      -99.90      -99.90      -99.90      -99.90      -99.90      -99.90      -99.90      -99.90    
       -99.90      -99.90      -99.90      -99.90      -99.90      -99.90      -99.90      -99.90      -99.90      -99.90    
       -99.90      -99.90      -99.90      -99.90      -99.90      -99.90      -99.90      -99.90      -99.90      -99.90    
   3   -99.90      -99.90      -99.90      -99.90      -99.90      -99.90      -99.90      -99.90      -99.90      -99.90    
       -99.90      -99.90      -99.90      -99.90      -99.90      -99.90      -99.90      -99.90      -99.90      -99.90    
       -99.90      -99.90      -99.90      -99.90      -99.90      -99.90      -99.90      -99.90      -99.90      -99.90    
       -99.90      -99.90      -99.90      -99.90      -99.90      -99.90      -99.90      -99.90      -99.90      -99.90    
   4   -99.90      -99.90      -99.90      -99.90      -99.90      -99.90      -99.90      -99.90      -99.90      -99.90    
       -99.90      -99.90      -99.90      -99.90      -99.90      -99.90      -99.90      -99.90      -99.90      -99.90    
       -99.90      -99.90      -99.90      -99.90      -99.90      -99.90      -99.90      -99.90      -99.90      -99.90    
       -99.90      -99.90      -99.90      -99.90      -99.90      -99.90      -99.90      -99.90      -99.90      -99.90    
   5   -99.90      -99.90      -99.90      -99.90      -99.90      -99.90      -99.90      -99.90      -99.90      -99.90    
       -99.90      -99.90      -99.90      -99.90      -99.90      -99.90      -99.90      -99.90      -99.90      -99.90    
       -99.90      -99.90      -99.90      -99.90      -99.90      -99.90      -99.90      -99.90      -99.90      -99.90    
       -99.90      -99.90      -99.90      -99.90      -99.90      -99.90      -99.90      -99.90      -99.90      -99.90    
   6   -99.90      -99.90      -99.90      -99.90      -99.90      -99.90      -99.90      -99.90      -99.90      -99.90    
       -99.90      -99.90      -99.90      -99.90      -99.90      -99.90      -99.90      -99.90      -99.90      -99.90    
       -99.90      -99.90      -99.90      -99.90      -99.90      -99.90      -99.90      -99.90      -99.90      -99.90    
       -99.90      -99.90      -99.90      -99.90      -99.90      -99.90      -99.90      -99.90      -99.90      -99.90    
   7   -99.90      -99.90      -99.90      -99.90      -99.90      -99.90      -99.90      -99.90      -99.90      -99.90    
       -99.90      -99.90      -99.90      -99.90      -99.90      -99.90      -99.90      -99.90      -99.90      -99.90    
       -99.90      -99.90      -99.90      -99.90      -99.90      -99.90      -99.90      -99.90      -99.90      -99.90    
       -99.90      -99.90      -99.90      -99.90      -99.90      -99.90      -99.90      -99.90      -99.90      -99.90    
   8   -99.90      -99.90      -99.90      -99.90      -99.90      -99.90      -99.90      -99.90      -99.90      -99.90    
       -99.90      -99.90      -99.90      -99.90      -99.90      -99.90      -99.90      -99.90      -99.90      -99.90    
       -99.90      -99.90      -99.90      -99.90      -99.90      -99.90      -99.90      -99.90      -99.90      -99.90    
       -99.90      -99.90      -99.90      -99.90      -99.90      -99.90      -99.90      -99.90      -99.90      -99.90    
   9   -99.90      -99.90      -99.90      -99.90      -99.90      -99.90      -99.90      -99.90      -99.90      -99.90    
       -99.90      -99.90      -99.90      -99.90      -99.90      -99.90      -99.90      -99.90      -99.90      -99.90    
       -99.90      -99.90      -99.90      -99.90      -99.90      -99.90      -99.90      -99.90      -99.90      -99.90    
       -99.90      -99.90      -99.90      -99.90      -99.90      -99.90      -99.90      -99.90      -99.90      -99.90    
  10   -99.90      -99.90      -99.90      -99.90      -99.90      -99.90      -99.90      -99.90      -99.90      -99.90    
       -99.90      -99.90      -99.90      -99.90      -99.90      -99.90      -99.90      -99.90      -99.90      -99.90    
       -99.90      -99.90      -99.90      -99.90      -99.90      -99.90      -99.90      -99.90      -99.90      -99.90    
       -99.90      -99.90      -99.90      -99.90      -99.90      -99.90      -99.90      -99.90      -99.90      -99.90    
  11   -99.90      -99.90      -99.90      -99.90      -99.90      -99.90      -99.90      -99.90      -99.90      -99.90    
       -99.90      -99.90      -99.90      -99.90      -99.90      -99.90      -99.90      -99.90      -99.90      -99.90    
       -99.90      -99.90      -99.90      -99.90      -99.90      -99.90      -99.90      -99.90      -99.90      -99.90    
       -99.90      -99.90      -99.90      -99.90      -99.90      -99.90      -99.90      -99.90      -99.90      -99.90    
  12   -99.90      -99.90      -99.90      -99.90      -99.90      -99.90      -99.90      -99.90      -99.90      -99.90    
       -99.90      -99.90      -99.90      -99.90      -99.90      -99.90      -99.90      -99.90      -99.90      -99.90    
       -99.90      -99.90      -99.90      -99.90      -99.90      -99.90      -99.90      -99.90      -99.90      -99.90    
       -99.90      -99.90      -99.90      -99.90      -99.90      -99.90      -99.90      -99.90      -99.90      -99.90    
  13   -99.90      -99.90      -99.90      -99.90      -99.90      -99.90      -99.90      -99.90      -99.90      -99.90    
       -99.90      -99.90      -99.90      -99.90      -99.90      -99.90      -99.90      -99.90      -99.90      -99.90    
       -99.90      -99.90      -99.90      -99.90      -99.90      -99.90      -99.90      -99.90      -99.90      -99.90    
       -99.90      -99.90      -99.90      -99.90      -99.90      -99.90      -99.90      -99.90      -99.90      -99.90    
  14   -99.90      -99.90      -99.90      -99.90      -99.90      -99.90      -99.90      -99.90      -99.90      -99.90    
       -99.90      -99.90      -99.90      -99.90      -99.90      -99.90      -99.90      -99.90      -99.90      -99.90    
       -99.90      -99.90      -99.90      -99.90      -99.90      -99.90      -99.90      -99.90      -99.90      -99.90    
       -99.90      -99.90      -99.90      -99.90      -99.90      -99.90      -99.90      -99.90      -99.90      -99.90    
  15   -99.90      -99.90      -99.90      -99.90      -99.90      -99.90      -99.90      -99.90      -99.90      -99.90    
       -99.90      -99.90      -99.90      -99.90      -99.90      -99.90      -99.90      -99.90      -99.90      -99.90    
       -99.90      -99.90      -99.90      -99.90      -99.90      -99.90      -99.90      -99.90      -99.90      -99.90    
       -99.90      -99.90      -99.90      -99.90      -99.90      -99.90      -99.90      -99.90      -99.90      -99.90    
  16   -99.90      -99.90      -99.90      -99.90      -99.90      -99.90      -99.90      -99.90      -99.90      -99.90    
       -99.90      -99.90      -99.90      -99.90      -99.90      -99.90      -99.90      -99.90      -99.90      -99.90    
       -99.90      -99.90      -99.90      -99.90      -99.90      -99.90      -99.90      -99.90      -99.90      -99.90    
       -99.90      -99.90      -99.90      -99.90      -99.90      -99.90      -99.90      -99.90      -99.90      -99.90    
  17   -99.90      -99.90      -99.90      -99.90      -99.90      -99.90      -99.90      -99.90      -99.90      -99.90    
       -99.90      -99.90      -99.90      -99.90      -99.90      -99.90      -99.90      -99.90      -99.90      -99.90    
       -99.90      -99.90      -99.90      -99.90      -99.90      -99.90      -99.90      -99.90      -99.90      -99.90    
       -99.90      -99.90      -99.90      -99.90      -99.90      -99.90      -99.90      -99.90      -99.90      -99.90    
  18   -99.90      -99.90      -99.90      -99.90      -99.90      -99.90      -99.90      -99.90      -99.90      -99.90    
       -99.90      -99.90      -99.90      -99.90      -99.90      -99.90      -99.90      -99.90      -99.90      -99.90    
       -99.90      -99.90      -99.90      -99.90      -99.90      -99.90      -99.90      -99.90      -99.90      -99.90    
       -99.90      -99.90      -99.90      -99.90      -99.90      -99.90      -99.90      -99.90      -99.90      -99.90    
  19   -99.90      -99.90      -99.90      -99.90      -99.90      -99.90      -99.90      -99.90      -99.90      -99.90    
       -99.90      -99.90      -99.90      -99.90      -99.90      -99.90      -99.90      -99.90      -99.90      -99.90    
       -99.90      -99.90      -99.90      -99.90      -99.90      -99.90      -99.90      -99.90      -99.90      -99.90    
       -99.90      -99.90      -99.90      -99.90      -99.90      -99.90      -99.90      -99.90      -99.90      -99.90    
  20   -99.90      -99.90      -99.90      -99.90      -99.90      -99.90      -99.90      -99.90      -99.90      -99.90    
       -99.90      -99.90      -99.90      -99.90      -99.90      -99.90      -99.90      -99.90      -99.90      -99.90    
       -99.90      -99.90      -99.90      -99.90      -99.90      -99.90      -99.90      -99.90      -99.90      -99.90    
       -99.90      -99.90      -99.90      -99.90      -99.90      -99.90      -99.90      -99.90      -99.90      -99.90    
  21   -99.90      -99.90      -99.90      -99.90      -99.90      -99.90      -99.90      -99.90      -99.90      -99.90    
       -99.90      -99.90      -99.90      -99.90      -99.90      -99.90      -99.90      -99.90      -99.90      -99.90    
       -99.90      -99.90      -99.90      -99.90      -99.90      -99.90      -99.90      -99.90      -99.90      -99.90    
       -99.90      -99.90      -99.90      -99.90      -99.90      -99.90      -99.90      -99.90      -99.90      -99.90    
  22   -99.90      -99.90      -99.90      -99.90      -99.90      -99.90      -99.90      -99.90      -99.90      -99.90    
       -99.90      -99.90      -99.90      -99.90      -99.90      -99.90      -99.90      -99.90      -99.90      -99.90    
       -99.90      -99.90      -99.90      -99.90      -99.90      -99.90      -99.90      -99.90      -99.90      -99.90    
       -99.90      -99.90      -99.90      -99.90      -99.90      -99.90      -99.90      -99.90      -99.90      -99.90    
  23   -99.90      -99.90      -99.90      -99.90      -99.90      -99.90      -99.90      -99.90      -99.90      -99.90    
       -99.90      -99.90      -99.90      -99.90      -99.90      -99.90      -99.90      -99.90      -99.90      -99.90    
       -99.90      -99.90      -99.90      -99.90      -99.90      -99.90      -99.90      -99.90      -99.90      -99.90    
       -99.90      -99.90      -99.90      -99.90      -99.90      -99.90      -99.90      -99.90      -99.90      -99.90    
  24   -99.90      -99.90      -99.90      -99.90      -99.90      -99.90      -99.90      -99.90      -99.90      -99.90    
       -99.90      -99.90      -99.90      -99.90      -99.90      -99.90      -99.90      -99.90      -99.90      -99.90    
       -99.90      -99.90      -99.90      -99.90      -99.90      -99.90      -99.90      -99.90      -99.90      -99.90    
       -99.90      -99.90      -99.90      -99.90      -99.90      -99.90      -99.90      -99.90      -99.90      -99.90    
  25   -99.90      -99.90      -99.90      -99.90      -99.90      -99.90      -99.90      -99.90      -99.90      -99.90    
       -99.90      -99.90      -99.90      -99.90      -99.90      -99.90      -99.90      -99.90      -99.90      -99.90    
       -99.90      -99.90      -99.90      -99.90      -99.90      -99.90      -99.90      -99.90      -99.90      -99.90    
       -99.90      -99.90      -99.90      -99.90      -99.90      -99.90      -99.90      -99.90      -99.90      -99.90    
  26   -99.90      -99.90      -99.90      -99.90      -99.90      -99.90      -99.90      -99.90      -99.90      -99.90    
       -99.90      -99.90      -99.90      -99.90      -99.90      -99.90      -99.90      -99.90      -99.90      -99.90    
       -99.90      -99.90      -99.90      -99.90      -99.90      -99.90      -99.90      -99.90      -99.90      -99.90    
       -99.90      -99.90      -99.90      -99.90      -99.90      -99.90      -99.90      -99.90      -99.90      -99.90    
  27   -99.90      -99.90      -99.90      -99.90      -99.90      -99.90      -99.90      -99.90      -99.90      -99.90    
       -99.90      -99.90      -99.90      -99.90      -99.90      -99.90      -99.90      -99.90      -99.90      -99.90    
       -99.90      -99.90      -99.90      -99.90      -99.90      -99.90      -99.90      -99.90      -99.90      -99.90    
       -99.90      -99.90      -99.90      -99.90      -99.90      -99.90      -99.90      -99.90      -99.90      -99.90    
  28   -99.90      -99.90      -99.90      -99.90      -99.90      -99.90      -99.90      -99.90      -99.90      -99.90    
       -99.90      -99.90      -99.90      -99.90      -99.90      -99.90      -99.90      -99.90      -99.90      -99.90    
       -99.90      -99.90      -99.90      -99.90      -99.90      -99.90      -99.90      -99.90      -99.90      -99.90    
       -99.90      -99.90      -99.90      -99.90      -99.90      -99.90      -99.90      -99.90      -99.90      -99.90    
  29   -99.90      -99.90      -99.90      -99.90      -99.90      -99.90      -99.90      -99.90      -99.90      -99.90    
       -99.90      -99.90      -99.90      -99.90      -99.90      -99.90      -99.90      -99.90      -99.90      -99.90    
       -99.90      -99.90      -99.90      -99.90      -99.90      -99.90      -99.90      -99.90      -99.90      -99.90    
       -99.90      -99.90      -99.90      -99.90      -99.90      -99.90      -99.90      -99.90      -99.90      -99.90    
  30   -99.90      -99.90      -99.90      -99.90      -99.90      -99.90      -99.90      -99.90      -99.90      -99.90    
       -99.90      -99.90      -99.90      -99.90      -99.90      -99.90      -99.90      -99.90      -99.90      -99.90    
       -99.90      -99.90      -99.90      -99.90      -99.90      -99.90      -99.90      -99.90      -99.90      -99.90    
       -99.90      -99.90      -99.90      -99.90      -99.90      -99.90      -99.90      -99.90      -99.90      -99.90    
  31   -99.90      -99.90      -99.90      -99.90      -99.90      -99.90      -99.90      -99.90      -99.90      -99.90    
       -99.90      -99.90      -99.90      -99.90      -99.90      -99.90      -99.90      -99.90      -99.90      -99.90    
       -99.90      -99.90      -99.90      -99.90      -99.90      -99.90      -99.90      -99.90      -99.90      -99.90    
       -99.90      -99.90      -99.90      -99.90      -99.90      -99.90      -99.90      -99.90      -99.90      -99.90    
  32   -99.90      -99.90      -99.90      -99.90      -99.90      -99.90      -99.90      -99.90      -99.90      -99.90    
       -99.90      -99.90      -99.90      -99.90      -99.90      -99.90      -99.90      -99.90      -99.90      -99.90    
       -99.90      -99.90      -99.90      -99.90      -99.90      -99.90      -99.90      -99.90      -99.90      -99.90    
       -99.90      -99.90      -99.90      -99.90      -99.90      -99.90      -99.90      -99.90      -99.90      -99.90    
  33   -99.90      -99.90      -99.90      -99.90      -99.90      -99.90      -99.90      -99.90      -99.90      -99.90    
       -99.90      -99.90      -99.90      -99.90      -99.90      -99.90      -99.90      -99.90      -99.90      -99.90    
       -99.90      -99.90      -99.90      -99.90      -99.90      -99.90      -99.90      -99.90      -99.90      -99.90    
       -99.90      -99.90      -99.90      -99.90      -99.90      -99.90      -99.90      -99.90      -99.90      -99.90    
  34   -99.90      -99.90      -99.90      -99.90      -99.90      -99.90      -99.90      -99.90      -99.90      -99.90    
       -99.90      -99.90      -99.90      -99.90      -99.90      -99.90      -99.90      -99.90      -99.90      -99.90    
       -99.90      -99.90      -99.90      -99.90      -99.90      -99.90      -99.90      -99.90      -99.90      -99.90    
       -99.90      -99.90      -99.90      -99.90      -99.90      -99.90      -99.90      -99.90      -99.90      -99.90    
  35   -99.90      -99.90      -99.90      -99.90      -99.90      -99.90      -99.90      -99.90      -99.90      -99.90    
       -99.90      -99.90      -99.90      -99.90      -99.90      -99.90      -99.90      -99.90      -99.90      -99.90    
       -99.90      -99.90      -99.90      -99.90      -99.90      -99.90      -99.90      -99.90      -99.90      -99.90    
       -99.90      -99.90      -99.90      -99.90      -99.90      -99.90      -99.90      -99.90      -99.90      -99.90    
  36   -99.90      -99.90      -99.90      -99.90      -99.90      -99.90      -99.90      -99.90      -99.90      -99.90    
       -99.90      -99.90      -99.90      -99.90      -99.90      -99.90      -99.90      -99.90      -99.90      -99.90    
       -99.90      -99.90      -99.90      -99.90      -99.90      -99.90      -99.90      -99.90      -99.90      -99.90    
       -99.90      -99.90      -99.90      -99.90      -99.90      -99.90      -99.90      -99.90      -99.90      -99.90    
  37   -99.90      -99.90      -99.90      -99.90      -99.90      -99.90      -99.90      -99.90      -99.90      -99.90    
       -99.90      -99.90      -99.90      -99.90      -99.90      -99.90      -99.90      -99.90      -99.90      -99.90    
       -99.90      -99.90      -99.90      -99.90      -99.90      -99.90      -99.90      -99.90      -99.90      -99.90    
       -99.90      -99.90      -99.90      -99.90      -99.90      -99.90      -99.90      -99.90      -99.90      -99.90    
  38   -99.90      -99.90      -99.90      -99.90      -99.90      -99.90      -99.90      -99.90      -99.90      -99.90    
       -99.90      -99.90      -99.90      -99.90      -99.90      -99.90      -99.90      -99.90      -99.90      -99.90    
       -99.90      -99.90      -99.90      -99.90      -99.90      -99.90      -99.90      -99.90      -99.90      -99.90    
       -99.90      -99.90      -99.90      -99.90      -99.90      -99.90      -99.90      -99.90      -99.90      -99.90    
  39   -99.90      -99.90      -99.90      -99.90      -99.90      -99.90      -99.90      -99.90      -99.90      -99.90    
       -99.90      -99.90      -99.90      -99.90      -99.90      -99.90      -99.90      -99.90      -99.90      -99.90    
       -99.90      -99.90      -99.90      -99.90      -99.90      -99.90      -99.90      -99.90      -99.90      -99.90    
       -99.90      -99.90      -99.90      -99.90      -99.90      -99.90      -99.90      -99.90      -99.90      -99.90    
  40   -99.90      -99.90      -99.90      -99.90      -99.90      -99.90      -99.90      -99.90      -99.90      -99.90    
       -99.90      -99.90      -99.90      -99.90      -99.90      -99.90      -99.90      -99.90      -99.90      -99.90    
       -99.90      -99.90      -99.90      -99.90      -99.90      -99.90      -99.90      -99.90      -99.90      -99.90    
       -99.90      -99.90      -99.90      -99.90      -99.90      -99.90      -99.90      -99.90      -99.90      -99.90    
1
              HEAD IN LAYER 2 AT END OF TIME STEP 2 IN STRESS PERIOD 2
  ---------------------------------------------------------------------------

            1           2           3           4           5           6           7           8           9          10
           11          12          13          14          15          16          17          18          19          20
           21          22          23          24          25          26          27          28          29          30
           31          32          33          34          35          36          37          38          39          40
 ........................................................................................................................
   1   -99.90      -99.90      -99.90      -99.90      -99.90      -99.90      -99.90      -99.90      -99.90      -99.90    
       -99.90      -99.90      -99.90      -99.90      -99.90      -99.90      -99.90      -99.90      -99.90      -99.90    
       -99.90      -99.90      -99.90      -99.90      -99.90      -99.90      -99.90      -99.90      -99.90      -99.90    
       -99.90      -99.90      -99.90      -99.90      -99.90      -99.90      -99.90      -99.90      -99.90      -99.90    
   2   -99.90      -99.90      -99.90      -99.90      -99.90      -99.90      -99.90      -99.90      -99.90      -99.90    
       -99.90      -99.90      -99.90      -99.90      -99.90      -99.90      -99.90      -99.90      -99.90      -99.90    
       -99.90      -99.90      -99.90      -99.90      -99.90      -99.90      -99.90      -99.90      -99.90      -99.90    
       -99.90      -99.90      -99.90      -99.90      -99.90      -99.90      -99.90      -99.90      -99.90      -99.90    
   3   -99.90      -99.90      -99.90      -99.90      -99.90      -99.90      -99.90      -99.90      -99.90      -99.90    
       -99.90      -99.90      -99.90      -99.90      -99.90      -99.90      -99.90      -99.90      -99.90      -99.90    
       -99.90      -99.90      -99.90      -99.90      -99.90      -99.90      -99.90      -99.90      -99.90      -99.90    
       -99.90      -99.90      -99.90      -99.90      -99.90      -99.90      -99.90      -99.90      -99.90      -99.90    
   4   -99.90      -99.90      -99.90      -99.90      -99.90      -99.90      -99.90      -99.90      -99.90      -99.90    
       -99.90      -99.90      -99.90      -99.90      -99.90      -99.90      -99.90      -99.90      -99.90      -99.90    
       -99.90      -99.90      -99.90      -99.90      -99.90      -99.90      -99.90      -99.90      -99.90      -99.90    
       -99.90      -99.90      -99.90      -99.90      -99.90      -99.90      -99.90      -99.90      -99.90      -99.90    
   5   -99.90      -99.90      -99.90      -99.90      -99.90      -99.90      -99.90      -99.90      -99.90      -99.90    
       -99.90      -99.90      -99.90      -99.90      -99.90      -99.90      -99.90      -99.90      -99.90      -99.90    
       -99.90      -99.90      -99.90      -99.90      -99.90      -99.90      -99.90      -99.90      -99.90      -99.90    
       -99.90      -99.90      -99.90      -99.90      -99.90      -99.90      -99.90      -99.90      -99.90      -99.90    
   6   -99.90      -99.90      -99.90      -99.90      -99.90      -99.90      -99.90      -99.90      -99.90      -99.90    
       -99.90      -99.90      -99.90      -99.90      -99.90      -99.90      -99.90      -99.90      -99.90      -99.90    
       -99.90      -99.90      -99.90      -99.90      -99.90      -99.90      -99.90      -99.90      -99.90      -99.90    
       -99.90      -99.90      -99.90      -99.90      -99.90      -99.90      -99.90      -99.90      -99.90      -99.90    
   7   -99.90      -99.90      -99.90      -99.90      -99.90      -99.90      -99.90      -99.90      -99.90      -99.90    
       -99.90      -99.90      -99.90      -99.90      -99.90      -99.90      -99.90      -99.90      -99.90      -99.90    
       -99.90      -99.90      -99.90      -99.90      -99.90      -99.90      -99.90      -99.90      -99.90      -99.90    
       -99.90      -99.90      -99.90      -99.90      -99.90      -99.90      -99.90      -99.90      -99.90      -99.90    
   8   -99.90      -99.90      -99.90      -99.90      -99.90      -99.90      -99.90      -99.90      -99.90      -99.90    
       -99.90      -99.90      -99.90      -99.90      -99.90      -99.90      -99.90      -99.90      -99.90      -99.90    
       -99.90      -99.90      -99.90      -99.90      -99.90      -99.90      -99.90      -99.90      -99.90      -99.90    
       -99.90      -99.90      -99.90      -99.90      -99.90      -99.90      -99.90      -99.90      -99.90      -99.90    
   9   -99.90      -99.90      -99.90      -99.90      -99.90      -99.90      -99.90      -99.90      -99.90      -99.90    
       -99.90      -99.90      -99.90      -99.90      -99.90      -99.90      -99.90      -99.90      -99.90      -99.90    
       -99.90      -99.90      -99.90      -99.90      -99.90      -99.90      -99.90      -99.90      -99.90      -99.90    
       -99.90      -99.90      -99.90      -99.90      -99.90      -99.90      -99.90      -99.90      -99.90      -99.90    
  10   -99.90      -99.90      -99.90      -99.90      -99.90      -99.90      -99.90      -99.90      -99.90      -99.90    
       -99.90      -99.90      -99.90      -99.90      -99.90      -99.90      -99.90      -99.90      -99.90      -99.90    
       -99.90      -99.90      -99.90      -99.90      -99.90      -99.90      -99.90      -99.90      -99.90      -99.90    
       -99.90      -99.90      -99.90      -99.90      -99.90      -99.90      -99.90      -99.90      -99.90      -99.90    
  11   -99.90      -99.90      -99.90      -99.90      -99.90      -99.90      -99.90      -99.90      -99.90      -99.90    
       -99.90      -99.90      -99.90      -99.90      -99.90      -99.90      -99.90      -99.90      -99.90      -99.90    
       -99.90      -99.90      -99.90      -99.90      -99.90      -99.90      -99.90      -99.90      -99.90      -99.90    
       -99.90      -99.90      -99.90      -99.90      -99.90      -99.90      -99.90      -99.90      -99.90      -99.90    
  12   -99.90      -99.90      -99.90      -99.90      -99.90      -99.90      -99.90      -99.90      -99.90      -99.90    
       -99.90      -99.90      -99.90      -99.90      -99.90      -99.90      -99.90      -99.90      -99.90      -99.90    
       -99.90      -99.90      -99.90      -99.90      -99.90      -99.90      -99.90      -99.90      -99.90      -99.90    
       -99.90      -99.90      -99.90      -99.90      -99.90      -99.90      -99.90      -99.90      -99.90      -99.90    
  13   -99.90      -99.90      -99.90      -99.90      -99.90      -99.90      -99.90      -99.90      -99.90      -99.90    
       -99.90      -99.90      -99.90      -99.90      -99.90      -99.90      -99.90      -99.90      -99.90      -99.90    
       -99.90      -99.90      -99.90      -99.90      -99.90      -99.90      -99.90      -99.90      -99.90      -99.90    
       -99.90      -99.90      -99.90      -99.90      -99.90      -99.90      -99.90      -99.90      -99.90      -99.90    
  14   -99.90      -99.90      -99.90      -99.90      -99.90      -99.90      -99.90      -99.90      -99.90      -99.90    
       -99.90      -99.90      -99.90      -99.90      -99.90      -99.90      -99.90      -99.90      -99.90      -99.90    
       -99.90      -99.90      -99.90      -99.90      -99.90      -99.90      -99.90      -99.90      -99.90      -99.90    
       -99.90      -99.90      -99.90      -99.90      -99.90      -99.90      -99.90      -99.90      -99.90      -99.90    
  15   -99.90      -99.90      -99.90      -99.90      -99.90      -99.90      -99.90      -99.90      -99.90      -99.90    
       -99.90      -99.90      -99.90      -99.90      -99.90      -99.90      -99.90      -99.90      -99.90      -99.90    
       -99.90      -99.90      -99.90      -99.90      -99.90      -99.90      -99.90      -99.90      -99.90      -99.90    
       -99.90      -99.90      -99.90      -99.90      -99.90      -99.90      -99.90      -99.90      -99.90      -99.90    
  16   -99.90      -99.90      -99.90      -99.90      -99.90      -99.90      -99.90      -99.90      -99.90      -99.90    
       -99.90      -99.90      -99.90      -99.90      -99.90      -99.90      -99.90      -99.90      -99.90      -99.90    
       -99.90      -99.90      -99.90      -99.90      -99.90      -99.90      -99.90      -99.90      -99.90      -99.90    
       -99.90      -99.90      -99.90      -99.90      -99.90      -99.90      -99.90      -99.90      -99.90      -99.90    
  17   -99.90      -99.90      -99.90      -99.90      -99.90      -99.90      -99.90      -99.90      -99.90      -99.90    
       -99.90      -99.90      -99.90      -99.90      -99.90      -99.90      -99.90      -99.90      -99.90      -99.90    
       -99.90      -99.90      -99.90      -99.90      -99.90      -99.90      -99.90      -99.90      -99.90      -99.90    
       -99.90      -99.90      -99.90      -99.90      -99.90      -99.90      -99.90      -99.90      -99.90      -99.90    
  18   -99.90      -99.90      -99.90      -99.90      -99.90      -99.90      -99.90      -99.90      -99.90      -99.90    
       -99.90      -99.90      -99.90      -99.90      -99.90      -99.90      -99.90      -99.90      -99.90      -99.90    
       -99.90      -99.90      -99.90      -99.90      -99.90      -99.90      -99.90      -99.90      -99.90      -99.90    
       -99.90      -99.90      -99.90      -99.90      -99.90      -99.90      -99.90      -99.90      -99.90      -99.90    
  19   -99.90      -99.90      -99.90      -99.90      -99.90      -99.90      -99.90      -99.90      -99.90      -99.90    
       -99.90      -99.90      -99.90      -99.90      -99.90      -99.90      -99.90      -99.90      -99.90      -99.90    
       -99.90      -99.90      -99.90      -99.90      -99.90      -99.90      -99.90      -99.90      -99.90      -99.90    
       -99.90      -99.90      -99.90      -99.90      -99.90      -99.90      -99.90      -99.90      -99.90      -99.90    
  20   -99.90      -99.90      -99.90      -99.90      -99.90      -99.90      -99.90      -99.90      -99.90      -99.90    
       -99.90      -99.90      -99.90      -99.90      -99.90      -99.90      -99.90      -99.90      -99.90      -99.90    
       -99.90      -99.90      -99.90      -99.90      -99.90      -99.90      -99.90      -99.90      -99.90      -99.90    
       -99.90      -99.90      -99.90      -99.90      -99.90      -99.90      -99.90      -99.90      -99.90      -99.90    
  21   -99.90      -99.90      -99.90      -99.90      -99.90      -99.90      -99.90      -99.90      -99.90      -99.90    
       -99.90      -99.90      -99.90      -99.90      -99.90      -99.90      -99.90      -99.90      -99.90      -99.90    
       -99.90      -99.90      -99.90      -99.90      -99.90      -99.90      -99.90      -99.90      -99.90      -99.90    
       -99.90      -99.90      -99.90      -99.90      -99.90      -99.90      -99.90      -99.90      -99.90      -99.90    
  22   -99.90      -99.90      -99.90      -99.90      -99.90      -99.90      -99.90      -99.90      -99.90      -99.90    
       -99.90      -99.90      -99.90      -99.90      -99.90      -99.90      -99.90      -99.90      -99.90      -99.90    
       -99.90      -99.90      -99.90      -99.90      -99.90      -99.90      -99.90      -99.90      -99.90      -99.90    
       -99.90      -99.90      -99.90      -99.90      -99.90      -99.90      -99.90      -99.90      -99.90      -99.90    
  23   -99.90      -99.90      -99.90      -99.90      -99.90      -99.90      -99.90      -99.90      -99.90      -99.90    
       -99.90      -99.90      -99.90      -99.90      -99.90      -99.90      -99.90      -99.90      -99.90      -99.90    
       -99.90      -99.90      -99.90      -99.90      -99.90      -99.90      -99.90      -99.90      -99.90      -99.90    
       -99.90      -99.90      -99.90      -99.90      -99.90      -99.90      -99.90      -99.90      -99.90      -99.90    
  24   -99.90      -99.90      -99.90      -99.90      -99.90      -99.90      -99.90      -99.90      -99.90      -99.90    
       -99.90      -99.90      -99.90      -99.90      -99.90      -99.90      -99.90      -99.90      -99.90      -99.90    
       -99.90      -99.90      -99.90      -99.90      -99.90      -99.90      -99.90      -99.90      -99.90      -99.90    
       -99.90      -99.90      -99.90      -99.90      -99.90      -99.90      -99.90      -99.90      -99.90      -99.90    
  25   -99.90      -99.90      -99.90      -99.90      -99.90      -99.90      -99.90      -99.90      -99.90      -99.90    
       -99.90      -99.90      -99.90      -99.90      -99.90      -99.90      -99.90      -99.90      -99.90      -99.90    
       -99.90      -99.90      -99.90      -99.90      -99.90      -99.90      -99.90      -99.90      -99.90      -99.90    
       -99.90      -99.90      -99.90      -99.90      -99.90      -99.90      -99.90      -99.90      -99.90      -99.90    
  26   -99.90      -99.90      -99.90      -99.90      -99.90      -99.90      -99.90      -99.90      -99.90      -99.90    
       -99.90      -99.90      -99.90      -99.90      -99.90      -99.90      -99.90      -99.90      -99.90      -99.90    
       -99.90      -99.90      -99.90      -99.90      -99.90      -99.90      -99.90      -99.90      -99.90      -99.90    
       -99.90      -99.90      -99.90      -99.90      -99.90      -99.90      -99.90      -99.90      -99.90      -99.90    
  27   -99.90      -99.90      -99.90      -99.90      -99.90      -99.90      -99.90      -99.90      -99.90      -99.90    
       -99.90      -99.90      -99.90      -99.90      -99.90      -99.90      -99.90      -99.90      -99.90      -99.90    
       -99.90      -99.90      -99.90      -99.90      -99.90      -99.90      -99.90      -99.90      -99.90      -99.90    
       -99.90      -99.90      -99.90      -99.90      -99.90      -99.90      -99.90      -99.90      -99.90      -99.90    
  28   -99.90      -99.90      -99.90      -99.90      -99.90      -99.90      -99.90      -99.90      -99.90      -99.90    
       -99.90      -99.90      -99.90      -99.90      -99.90      -99.90      -99.90      -99.90      -99.90      -99.90    
       -99.90      -99.90      -99.90      -99.90      -99.90      -99.90      -99.90      -99.90      -99.90      -99.90    
       -99.90      -99.90      -99.90      -99.90      -99.90      -99.90      -99.90      -99.90      -99.90      -99.90    
  29   -99.90      -99.90      -99.90      -99.90      -99.90      -99.90      -99.90      -99.90      -99.90      -99.90    
       -99.90      -99.90      -99.90      -99.90      -99.90      -99.90      -99.90      -99.90      -99.90      -99.90    
       -99.90      -99.90      -99.90      -99.90      -99.90      -99.90      -99.90      -99.90      -99.90      -99.90    
       -99.90      -99.90      -99.90      -99.90      -99.90      -99.90      -99.90      -99.90      -99.90      -99.90    
  30   -99.90      -99.90      -99.90      -99.90      -99.90      -99.90      -99.90      -99.90      -99.90      -99.90    
       -99.90      -99.90      -99.90      -99.90      -99.90      -99.90      -99.90      -99.90      -99.90      -99.90    
       -99.90      -99.90      -99.90      -99.90      -99.90      -99.90      -99.90      -99.90      -99.90      -99.90    
       -99.90      -99.90      -99.90      -99.90      -99.90      -99.90      -99.90      -99.90      -99.90      -99.90    
  31   -99.90      -99.90      -99.90      -99.90      -99.90      -99.90      -99.90      -99.90      -99.90      -99.90    
       -99.90      -99.90      -99.90      -99.90      -99.90      -99.90      -99.90      -99.90      -99.90      -99.90    
       -99.90      -99.90      -99.90      -99.90      -99.90      -99.90      -99.90      -99.90      -99.90      -99.90    
       -99.90      -99.90      -99.90      -99.90      -99.90      -99.90      -99.90      -99.90      -99.90      -99.90    
  32   -99.90      -99.90      -99.90      -99.90      -99.90      -99.90      -99.90      -99.90      -99.90      -99.90    
       -99.90      -99.90      -99.90      -99.90      -99.90      -99.90      -99.90      -99.90      -99.90      -99.90    
       -99.90      -99.90      -99.90      -99.90      -99.90      -99.90      -99.90      -99.90      -99.90      -99.90    
       -99.90      -99.90      -99.90      -99.90      -99.90      -99.90      -99.90      -99.90      -99.90      -99.90    
  33   -99.90      -99.90      -99.90      -99.90      -99.90      -99.90      -99.90      -99.90      -99.90      -99.90    
       -99.90      -99.90      -99.90      -99.90      -99.90      -99.90      -99.90      -99.90      -99.90      -99.90    
       -99.90      -99.90      -99.90      -99.90      -99.90      -99.90      -99.90      -99.90      -99.90      -99.90    
       -99.90      -99.90      -99.90      -99.90      -99.90      -99.90      -99.90      -99.90      -99.90      -99.90    
  34   -99.90      -99.90      -99.90      -99.90      -99.90      -99.90      -99.90      -99.90      -99.90      -99.90    
       -99.90      -99.90      -99.90      -99.90      -99.90      -99.90      -99.90      -99.90      -99.90      -99.90    
       -99.90      -99.90      -99.90      -99.90      -99.90      -99.90      -99.90      -99.90      -99.90      -99.90    
       -99.90      -99.90      -99.90      -99.90      -99.90      -99.90      -99.90      -99.90      -99.90      -99.90    
  35   -99.90      -99.90      -99.90      -99.90      -99.90      -99.90      -99.90      -99.90      -99.90      -99.90    
       -99.90      -99.90      -99.90      -99.90      -99.90      -99.90      -99.90      -99.90      -99.90      -99.90    
       -99.90      -99.90      -99.90      -99.90      -99.90      -99.90      -99.90      -99.90      -99.90      -99.90    
       -99.90      -99.90      -99.90      -99.90      -99.90      -99.90      -99.90      -99.90      -99.90      -99.90    
  36   -99.90      -99.90      -99.90      -99.90      -99.90      -99.90      -99.90      -99.90      -99.90      -99.90    
       -99.90      -99.90      -99.90      -99.90      -99.90      -99.90      -99.90      -99.90      -99.90      -99.90    
       -99.90      -99.90      -99.90      -99.90      -99.90      -99.90      -99.90      -99.90      -99.90      -99.90    
       -99.90      -99.90      -99.90      -99.90      -99.90      -99.90      -99.90      -99.90      -99.90      -99.90    
  37   -99.90      -99.90      -99.90      -99.90      -99.90      -99.90      -99.90      -99.90      -99.90      -99.90    
       -99.90      -99.90      -99.90      -99.90      -99.90      -99.90      -99.90      -99.90      -99.90      -99.90    
       -99.90      -99.90      -99.90      -99.90      -99.90      -99.90      -99.90      -99.90      -99.90      -99.90    
       -99.90      -99.90      -99.90      -99.90      -99.90      -99.90      -99.90      -99.90      -99.90      -99.90    
  38   -99.90      -99.90      -99.90      -99.90      -99.90      -99.90      -99.90      -99.90      -99.90      -99.90    
       -99.90      -99.90      -99.90      -99.90      -99.90      -99.90      -99.90      -99.90      -99.90      -99.90    
       -99.90      -99.90      -99.90      -99.90      -99.90      -99.90      -99.90      -99.90      -99.90      -99.90    
       -99.90      -99.90      -99.90      -99.90      -99.90      -99.90      -99.90      -99.90      -99.90      -99.90    
  39   -99.90      -99.90      -99.90      -99.90      -99.90      -99.90      -99.90      -99.90      -99.90      -99.90    
       -99.90      -99.90      -99.90      -99.90      -99.90      -99.90      -99.90      -99.90      -99.90      -99.90    
       -99.90      -99.90      -99.90      -99.90      -99.90      -99.90      -99.90      -99.90      -99.90      -99.90    
       -99.90      -99.90      -99.90      -99.90      -99.90      -99.90      -99.90      -99.90      -99.90      -99.90    
  40   -99.90      -99.90      -99.90      -99.90      -99.90      -99.90      -99.90      -99.90      -99.90      -99.90    
       -99.90      -99.90      -99.90      -99.90      -99.90      -99.90      -99.90      -99.90      -99.90      -99.90    
       -99.90      -99.90      -99.90      -99.90      -99.90      -99.90      -99.90      -99.90      -99.90      -99.90    
       -99.90      -99.90      -99.90      -99.90      -99.90      -99.90      -99.90      -99.90      -99.90      -99.90    
1
              HEAD IN LAYER 3 AT END OF TIME STEP 2 IN STRESS PERIOD 2
  ---------------------------------------------------------------------------

            1           2           3           4           5           6           7           8           9          10
           11          12          13          14          15          16          17          18          19          20
           21          22          23          24          25          26          27          28          29          30
           31          32          33          34          35          36          37          38          39          40
 ........................................................................................................................
   1   -99.90      -99.90      -99.90      -99.90      -99.90      -99.90      -99.90      -99.90      -99.90      -99.90    
       -99.90      -99.90      -99.90      -99.90      -99.90      -99.90      -99.90      -99.90      -99.90      -99.90    
       -99.90      -99.90      -99.90      -99.90      -99.90      -99.90      -99.90      -99.90      -99.90      -99.90    
       -99.90      -99.90      -99.90      -99.90      -99.90      -99.90      -99.90      -99.90      -99.90      -99.90    
   2   -99.90      -99.90      -99.90      -99.90      -99.90      -99.90      -99.90      -99.90      -99.90      -99.90    
       -99.90      -99.90      -99.90      -99.90      -99.90      -99.90      -99.90      -99.90      -99.90      -99.90    
       -99.90      -99.90      -99.90      -99.90      -99.90      -99.90      -99.90      -99.90      -99.90      -99.90    
       -99.90      -99.90      -99.90      -99.90      -99.90      -99.90      -99.90      -99.90      -99.90      -99.90    
   3   -99.90      -99.90      -99.90      -99.90      -99.90      -99.90      -99.90      -99.90      -99.90      -99.90    
       -99.90      -99.90      -99.90      -99.90      -99.90      -99.90      -99.90      -99.90      -99.90      -99.90    
       -99.90      -99.90      -99.90      -99.90      -99.90      -99.90      -99.90      -99.90      -99.90      -99.90    
       -99.90      -99.90      -99.90      -99.90      -99.90      -99.90      -99.90      -99.90      -99.90      -99.90    
   4   -99.90      -99.90      -99.90      -99.90      -99.90      -99.90      -99.90      -99.90      -99.90      -99.90    
       -99.90      -99.90      -99.90      -99.90      -99.90      -99.90      -99.90      -99.90      -99.90      -99.90    
       -99.90      -99.90      -99.90      -99.90      -99.90      -99.90      -99.90      -99.90      -99.90      -99.90    
       -99.90      -99.90      -99.90      -99.90      -99.90      -99.90      -99.90      -99.90      -99.90      -99.90    
   5   -99.90      -99.90      -99.90      -99.90      -99.90      -99.90      -99.90      -99.90      -99.90      -99.90    
       -99.90      -99.90      -99.90      -99.90      -99.90      -99.90      -99.90      -99.90      -99.90      -99.90    
       -99.90      -99.90      -99.90      -99.90      -99.90      -99.90      -99.90      -99.90      -99.90      -99.90    
       -99.90      -99.90      -99.90      -99.90      -99.90      -99.90      -99.90      -99.90      -99.90      -99.90    
   6   -99.90      -99.90      -99.90      -99.90      -99.90      -99.90      -99.90      -99.90      -99.90      -99.90    
       -99.90      -99.90      -99.90      -99.90      -99.90      -99.90      -99.90      -99.90      -99.90      -99.90    
       -99.90      -99.90      -99.90      -99.90      -99.90      -99.90      -99.90      -99.90      -99.90      -99.90    
       -99.90      -99.90      -99.90      -99.90      -99.90      -99.90      -99.90      -99.90      -99.90      -99.90    
   7   -99.90      -99.90      -99.90      -99.90      -99.90      -99.90      -99.90      -99.90      -99.90      -99.90    
       -99.90      -99.90      -99.90      -99.90      -99.90      -99.90      -99.90      -99.90      -99.90      -99.90    
       -99.90      -99.90      -99.90      -99.90      -99.90      -99.90      -99.90      -99.90      -99.90      -99.90    
       -99.90      -99.90      -99.90      -99.90      -99.90      -99.90      -99.90      -99.90      -99.90      -99.90    
   8   -99.90      -99.90      -99.90      -99.90      -99.90      -99.90      -99.90      -99.90      -99.90      -99.90    
       -99.90      -99.90      -99.90      -99.90      -99.90      -99.90      -99.90      -99.90      -99.90      -99.90    
       -99.90      -99.90      -99.90      -99.90      -99.90      -99.90      -99.90      -99.90      -99.90      -99.90    
       -99.90      -99.90      -99.90      -99.90      -99.90      -99.90      -99.90      -99.90      -99.90      -99.90    
   9   -99.90      -99.90      -99.90      -99.90      -99.90      -99.90      -99.90      -99.90      -99.90      -99.90    
       -99.90      -99.90      -99.90      -99.90      -99.90      -99.90      -99.90      -99.90      -99.90      -99.90    
       -99.90      -99.90      -99.90      -99.90      -99.90      -99.90      -99.90      -99.90      -99.90      -99.90    
       -99.90      -99.90      -99.90      -99.90      -99.90      -99.90      -99.90      -99.90      -99.90      -99.90    
  10   -99.90      -99.90      -99.90      -99.90      -99.90      -99.90      -99.90      -99.90      -99.90      -99.90    
       -99.90      -99.90      -99.90      -99.90      -99.90      -99.90      -99.90      -99.90      -99.90      -99.90    
       -99.90      -99.90      -99.90      -99.90      -99.90      -99.90      -99.90      -99.90      -99.90      -99.90    
       -99.90      -99.90      -99.90      -99.90      -99.90      -99.90      -99.90      -99.90      -99.90      -99.90    
  11   -99.90      -99.90      -99.90      -99.90      -99.90      -99.90      -99.90      -99.90      -99.90      -99.90    
       -99.90      -99.90      -99.90      -99.90      -99.90      -99.90      -99.90      -99.90      -99.90      -99.90    
       -99.90      -99.90      -99.90      -99.90      -99.90      -99.90      -99.90      -99.90      -99.90      -99.90    
       -99.90      -99.90      -99.90      -99.90      -99.90      -99.90      -99.90      -99.90      -99.90      -99.90    
  12   -99.90      -99.90      -99.90      -99.90      -99.90      -99.90      -99.90      -99.90      -99.90      -99.90    
       -99.90      -99.90      -99.90      -99.90      -99.90      -99.90      -99.90      -99.90      -99.90      -99.90    
       -99.90      -99.90      -99.90      -99.90      -99.90      -99.90      -99.90      -99.90      -99.90      -99.90    
       -99.90      -99.90      -99.90      -99.90      -99.90      -99.90      -99.90      -99.90      -99.90      -99.90    
  13   -99.90      -99.90      -99.90      -99.90      -99.90      -99.90      -99.90      -99.90      -99.90      -99.90    
       -99.90      -99.90      -99.90      -99.90      -99.90      -99.90      -99.90      -99.90      -99.90      -99.90    
       -99.90      -99.90      -99.90      -99.90      -99.90      -99.90      -99.90      -99.90      -99.90      -99.90    
       -99.90      -99.90      -99.90      -99.90      -99.90      -99.90      -99.90      -99.90      -99.90      -99.90    
  14   -99.90      -99.90      -99.90      -99.90      -99.90      -99.90      -99.90      -99.90      -99.90      -99.90    
       -99.90      -99.90      -99.90      -99.90      -99.90      -99.90      -99.90      -99.90      -99.90      -99.90    
       -99.90      -99.90      -99.90      -99.90      -99.90      -99.90      -99.90      -99.90      -99.90      -99.90    
       -99.90      -99.90      -99.90      -99.90      -99.90      -99.90      -99.90      -99.90      -99.90      -99.90    
  15   -99.90      -99.90      -99.90      -99.90      -99.90      -99.90      -99.90      -99.90      -99.90      -99.90    
       -99.90      -99.90      -99.90      -99.90      -99.90      -99.90      -99.90      -99.90      -99.90      -99.90    
       -99.90      -99.90      -99.90      -99.90      -99.90      -99.90      -99.90      -99.90      -99.90      -99.90    
       -99.90      -99.90      -99.90      -99.90      -99.90      -99.90      -99.90      -99.90      -99.90      -99.90    
  16   -99.90      -99.90      -99.90      -99.90      -99.90      -99.90      -99.90      -99.90      -99.90      -99.90    
       -99.90      -99.90      -99.90      -99.90      -99.90      -99.90      -99.90      -99.90      -99.90      -99.90    
       -99.90      -99.90      -99.90      -99.90      -99.90      -99.90      -99.90      -99.90      -99.90      -99.90    
       -99.90      -99.90      -99.90      -99.90      -99.90      -99.90      -99.90      -99.90      -99.90      -99.90    
  17   -99.90      -99.90      -99.90      -99.90      -99.90      -99.90      -99.90      -99.90      -99.90      -99.90    
       -99.90      -99.90      -99.90      -99.90      -99.90      -99.90      -99.90      -99.90      -99.90      -99.90    
       -99.90      -99.90      -99.90      -99.90      -99.90      -99.90      -99.90      -99.90      -99.90      -99.90    
       -99.90      -99.90      -99.90      -99.90      -99.90      -99.90      -99.90      -99.90      -99.90      -99.90    
  18   -99.90      -99.90      -99.90      -99.90      -99.90      -99.90      -99.90      -99.90      -99.90      -99.90    
       -99.90      -99.90      -99.90      -99.90      -99.90      -99.90      -99.90      -99.90      -99.90      -99.90    
       -99.90      -99.90      -99.90      -99.90      -99.90      -99.90      -99.90      -99.90      -99.90      -99.90    
       -99.90      -99.90      -99.90      -99.90      -99.90      -99.90      -99.90      -99.90      -99.90      -99.90    
  19   -99.90      -99.90      -99.90      -99.90      -99.90      -99.90      -99.90      -99.90      -99.90      -99.90    
       -99.90      -99.90      -99.90      -99.90      -99.90      -99.90      -99.90      -99.90      -99.90      -99.90    
       -99.90      -99.90      -99.90      -99.90      -99.90      -99.90      -99.90      -99.90      -99.90      -99.90    
       -99.90      -99.90      -99.90      -99.90      -99.90      -99.90      -99.90      -99.90      -99.90      -99.90    
  20   -99.90      -99.90      -99.90      -99.90      -99.90      -99.90      -99.90      -99.90      -99.90      -99.90    
       -99.90      -99.90      -99.90      -99.90      -99.90      -99.90      -99.90      -99.90      -99.90      -99.90    
       -99.90      -99.90      -99.90      -99.90      -99.90      -99.90      -99.90      -99.90      -99.90      -99.90    
       -99.90      -99.90      -99.90      -99.90      -99.90      -99.90      -99.90      -99.90      -99.90      -99.90    
  21   -99.90      -99.90      -99.90      -99.90      -99.90      -99.90      -99.90      -99.90      -99.90      -99.90    
       -99.90      -99.90      -99.90      -99.90      -99.90      -99.90      -99.90      -99.90      -99.90      -99.90    
       -99.90      -99.90      -99.90      -99.90      -99.90      -99.90      -99.90      -99.90      -99.90      -99.90    
       -99.90      -99.90      -99.90      -99.90      -99.90      -99.90      -99.90      -99.90      -99.90      -99.90    
  22   -99.90      -99.90      -99.90      -99.90      -99.90      -99.90      -99.90      -99.90      -99.90      -99.90    
       -99.90      -99.90      -99.90      -99.90      -99.90      -99.90      -99.90      -99.90      -99.90      -99.90    
       -99.90      -99.90      -99.90      -99.90      -99.90      -99.90      -99.90      -99.90      -99.90      -99.90    
       -99.90      -99.90      -99.90      -99.90      -99.90      -99.90      -99.90      -99.90      -99.90      -99.90    
  23   -99.90      -99.90      -99.90      -99.90      -99.90      -99.90      -99.90      -99.90      -99.90      -99.90    
       -99.90      -99.90      -99.90      -99.90      -99.90      -99.90      -99.90      -99.90      -99.90      -99.90    
       -99.90      -99.90      -99.90      -99.90      -99.90      -99.90      -99.90      -99.90      -99.90      -99.90    
       -99.90      -99.90      -99.90      -99.90      -99.90      -99.90      -99.90      -99.90      -99.90      -99.90    
  24   -99.90      -99.90      -99.90      -99.90      -99.90      -99.90      -99.90      -99.90      -99.90      -99.90    
       -99.90      -99.90      -99.90      -99.90      -99.90      -99.90      -99.90      -99.90      -99.90      -99.90    
       -99.90      -99.90      -99.90      -99.90      -99.90      -99.90      -99.90      -99.90      -99.90      -99.90    
       -99.90      -99.90      -99.90      -99.90      -99.90      -99.90      -99.90      -99.90      -99.90      -99.90    
  25   -99.90      -99.90      -99.90      -99.90      -99.90      -99.90      -99.90      -99.90      -99.90      -99.90    
       -99.90      -99.90      -99.90      -99.90      -99.90      -99.90      -99.90      -99.90      -99.90      -99.90    
       -99.90      -99.90      -99.90      -99.90      -99.90      -99.90      -99.90      -99.90      -99.90      -99.90    
       -99.90      -99.90      -99.90      -99.90      -99.90      -99.90      -99.90      -99.90      -99.90      -99.90    
  26   -99.90      -99.90      -99.90      -99.90      -99.90      -99.90      -99.90      -99.90      -99.90      -99.90    
       -99.90      -99.90      -99.90      -99.90      -99.90      -99.90      -99.90      -99.90      -99.90      -99.90    
       -99.90      -99.90      -99.90      -99.90      -99.90      -99.90      -99.90      -99.90      -99.90      -99.90    
       -99.90      -99.90      -99.90      -99.90      -99.90      -99.90      -99.90      -99.90      -99.90      -99.90    
  27   -99.90      -99.90      -99.90      -99.90      -99.90      -99.90      -99.90      -99.90      -99.90      -99.90    
       -99.90      -99.90      -99.90      -99.90      -99.90      -99.90      -99.90      -99.90      -99.90      -99.90    
       -99.90      -99.90      -99.90      -99.90      -99.90      -99.90      -99.90      -99.90      -99.90      -99.90    
       -99.90      -99.90      -99.90      -99.90      -99.90      -99.90      -99.90      -99.90      -99.90      -99.90    
  28   -99.90      -99.90      -99.90      -99.90      -99.90      -99.90      -99.90      -99.90      -99.90      -99.90    
       -99.90      -99.90      -99.90      -99.90      -99.90      -99.90      -99.90      -99.90      -99.90      -99.90    
       -99.90      -99.90      -99.90      -99.90      -99.90      -99.90      -99.90      -99.90      -99.90      -99.90    
       -99.90      -99.90      -99.90      -99.90      -99.90      -99.90      -99.90      -99.90      -99.90      -99.90    
  29   -99.90      -99.90      -99.90      -99.90      -99.90      -99.90      -99.90      -99.90      -99.90      -99.90    
       -99.90      -99.90      -99.90      -99.90      -99.90      -99.90      -99.90      -99.90      -99.90      -99.90    
       -99.90      -99.90      -99.90      -99.90      -99.90      -99.90      -99.90      -99.90      -99.90      -99.90    
       -99.90      -99.90      -99.90      -99.90      -99.90      -99.90      -99.90      -99.90      -99.90      -99.90    
  30   -99.90      -99.90      -99.90      -99.90      -99.90      -99.90      -99.90      -99.90      -99.90      -99.90    
       -99.90      -99.90      -99.90      -99.90      -99.90      -99.90      -99.90      -99.90      -99.90      -99.90    
       -99.90      -99.90      -99.90      -99.90      -99.90      -99.90      -99.90      -99.90      -99.90      -99.90    
       -99.90      -99.90      -99.90      -99.90      -99.90      -99.90      -99.90      -99.90      -99.90      -99.90    
  31   -99.90      -99.90      -99.90      -99.90      -99.90      -99.90      -99.90      -99.90      -99.90      -99.90    
       -99.90      -99.90      -99.90      -99.90      -99.90      -99.90      -99.90      -99.90      -99.90      -99.90    
       -99.90      -99.90      -99.90      -99.90      -99.90      -99.90      -99.90      -99.90      -99.90      -99.90    
       -99.90      -99.90      -99.90      -99.90      -99.90      -99.90      -99.90      -99.90      -99.90      -99.90    
  32   -99.90      -99.90      -99.90      -99.90      -99.90      -99.90      -99.90      -99.90      -99.90      -99.90    
       -99.90      -99.90      -99.90      -99.90      -99.90      -99.90      -99.90      -99.90      -99.90      -99.90    
       -99.90      -99.90      -99.90      -99.90      -99.90      -99.90      -99.90      -99.90      -99.90      -99.90    
       -99.90      -99.90      -99.90      -99.90      -99.90      -99.90      -99.90      -99.90      -99.90      -99.90    
  33   -99.90      -99.90      -99.90      -99.90      -99.90      -99.90      -99.90      -99.90      -99.90      -99.90    
       -99.90      -99.90      -99.90      -99.90      -99.90      -99.90      -99.90      -99.90      -99.90      -99.90    
       -99.90      -99.90      -99.90      -99.90      -99.90      -99.90      -99.90      -99.90      -99.90      -99.90    
       -99.90      -99.90      -99.90      -99.90      -99.90      -99.90      -99.90      -99.90      -99.90      -99.90    
  34   -99.90      -99.90      -99.90      -99.90      -99.90      -99.90      -99.90      -99.90      -99.90      -99.90    
       -99.90      -99.90      -99.90      -99.90      -99.90      -99.90      -99.90      -99.90      -99.90      -99.90    
       -99.90      -99.90      -99.90      -99.90      -99.90      -99.90      -99.90      -99.90      -99.90      -99.90    
       -99.90      -99.90      -99.90      -99.90      -99.90      -99.90      -99.90      -99.90      -99.90      -99.90    
  35   -99.90      -99.90      -99.90      -99.90      -99.90      -99.90      -99.90      -99.90      -99.90      -99.90    
       -99.90      -99.90      -99.90      -99.90      -99.90      -99.90      -99.90      -99.90      -99.90      -99.90    
       -99.90      -99.90      -99.90      -99.90      -99.90      -99.90      -99.90      -99.90      -99.90      -99.90    
       -99.90      -99.90      -99.90      -99.90      -99.90      -99.90      -99.90      -99.90      -99.90      -99.90    
  36   -99.90      -99.90      -99.90      -99.90      -99.90      -99.90      -99.90      -99.90      -99.90      -99.90    
       -99.90      -99.90      -99.90      -99.90      -99.90      -99.90      -99.90      -99.90      -99.90      -99.90    
       -99.90      -99.90      -99.90      -99.90      -99.90      -99.90      -99.90      -99.90      -99.90      -99.90    
       -99.90      -99.90      -99.90      -99.90      -99.90      -99.90      -99.90      -99.90      -99.90      -99.90    
  37   -99.90      -99.90      -99.90      -99.90      -99.90      -99.90      -99.90      -99.90      -99.90      -99.90    
       -99.90      -99.90      -99.90      -99.90      -99.90      -99.90      -99.90      -99.90      -99.90      -99.90    
       -99.90      -99.90      -99.90      -99.90      -99.90      -99.90      -99.90      -99.90      -99.90      -99.90    
       -99.90      -99.90      -99.90      -99.90      -99.90      -99.90      -99.90      -99.90      -99.90      -99.90    
  38   -99.90      -99.90      -99.90      -99.90      -99.90      -99.90      -99.90      -99.90      -99.90      -99.90    
       -99.90      -99.90      -99.90      -99.90      -99.90      -99.90      -99.90      -99.90      -99.90      -99.90    
       -99.90      -99.90      -99.90      -99.90      -99.90      -99.90      -99.90      -99.90      -99.90      -99.90    
       -99.90      -99.90      -99.90      -99.90      -99.90      -99.90      -99.90      -99.90      -99.90      -99.90    
  39   -99.90      -99.90      -99.90      -99.90      -99.90      -99.90      -99.90      -99.90      -99.90      -99.90    
       -99.90      -99.90      -99.90      -99.90      -99.90      -99.90      -99.90      -99.90      -99.90      -99.90    
       -99.90      -99.90      -99.90      -99.90      -99.90      -99.90      -99.90      -99.90      -99.90      -99.90    
       -99.90      -99.90      -99.90      -99.90      -99.90      -99.90      -99.90      -99.90      -99.90      -99.90    
  40   -99.90      -99.90      -99.90      -99.90      -99.90      -99.90      -99.90      -99.90      -99.90      -99.90    
       -99.90      -99.90      -99.90      -99.90      -99.90      -99.90      -99.90      -99.90      -99.90      -99.90    
       -99.90      -99.90      -99.90      -99.90      -99.90      -99.90      -99.90      -99.90      -99.90      -99.90    
       -99.90      -99.90      -99.90      -99.90      -99.90      -99.90      -99.90      -99.90      -99.90      -99.90    
1
              HEAD IN LAYER 4 AT END OF TIME STEP 2 IN STRESS PERIOD 2
  ---------------------------------------------------------------------------

            1           2           3           4           5           6           7           8           9          10
           11          12          13          14          15          16          17          18          19          20
           21          22          23          24          25          26          27          28          29          30
           31          32          33          34          35          36          37          38          39          40
 ........................................................................................................................
   1   -99.90      -99.90      -99.90      -99.90      -99.90      -99.90      -99.90      -99.90      -99.90      -99.90    
       -99.90      -99.90      -99.90      -99.90      -99.90      -99.90      -99.90      -99.90      -99.90      -99.90    
       -99.90      -99.90      -99.90      -99.90      -99.90      -99.90      -99.90      -99.90      -99.90      -99.90    
       -99.90      -99.90      -99.90      -99.90      -99.90      -99.90      -99.90      -99.90      -99.90      -99.90    
   2   -99.90      -99.90      -99.90      -99.90      -99.90      -99.90      -99.90      -99.90      -99.90      -99.90    
       -99.90      -99.90      -99.90      -99.90      -99.90      -99.90      -99.90      -99.90      -99.90      -99.90    
       -99.90      -99.90      -99.90      -99.90      -99.90      -99.90      -99.90      -99.90      -99.90      -99.90    
       -99.90      -99.90      -99.90      -99.90      -99.90      -99.90      -99.90      -99.90      -99.90      -99.90    
   3   -99.90      -99.90      -99.90      -99.90      -99.90      -99.90      -99.90      -99.90      -99.90      -99.90    
       -99.90      -99.90      -99.90      -99.90      -99.90      -99.90      -99.90      -99.90      -99.90      -99.90    
       -99.90      -99.90      -99.90      -99.90      -99.90      -99.90      -99.90      -99.90      -99.90      -99.90    
       -99.90      -99.90      -99.90      -99.90      -99.90      -99.90      -99.90      -99.90      -99.90      -99.90    
   4   -99.90      -99.90      -99.90      -99.90      -99.90      -99.90      -99.90      -99.90      -99.90      -99.90    
       -99.90      -99.90      -99.90      -99.90      -99.90      -99.90      -99.90      -99.90      -99.90      -99.90    
       -99.90      -99.90      -99.90      -99.90      -99.90      -99.90      -99.90      -99.90      -99.90      -99.90    
       -99.90      -99.90      -99.90      -99.90      -99.90      -99.90      -99.90      -99.90      -99.90      -99.90    
   5   -99.90      -99.90      -99.90      -99.90      -99.90      -99.90      -99.90      -99.90      -99.90      -99.90    
       -99.90      -99.90      -99.90      -99.90      -99.90      -99.90      -99.90      -99.90      -99.90      -99.90    
       -99.90      -99.90      -99.90      -99.90      -99.90      -99.90      -99.90      -99.90      -99.90      -99.90    
       -99.90      -99.90      -99.90      -99.90      -99.90      -99.90      -99.90      -99.90      -99.90      -99.90    
   6   -99.90      -99.90      -99.90      -99.90      -99.90      -99.90      -99.90      -99.90      -99.90      -99.90    
       -99.90      -99.90      -99.90      -99.90      -99.90      -99.90      -99.90      -99.90      -99.90      -99.90    
       -99.90      -99.90      -99.90      -99.90      -99.90      -99.90      -99.90      -99.90      -99.90      -99.90    
       -99.90      -99.90      -99.90      -99.90      -99.90      -99.90      -99.90      -99.90      -99.90      -99.90    
   7   -99.90      -99.90      -99.90      -99.90      -99.90      -99.90      -99.90      -99.90      -99.90      -99.90    
       -99.90      -99.90      -99.90      -99.90      -99.90      -99.90      -99.90      -99.90      -99.90      -99.90    
       -99.90      -99.90      -99.90      -99.90      -99.90      -99.90      -99.90      -99.90      -99.90      -99.90    
       -99.90      -99.90      -99.90      -99.90      -99.90      -99.90      -99.90      -99.90      -99.90      -99.90    
   8   -99.90      -99.90      -99.90      -99.90      -99.90      -99.90      -99.90      -99.90      -99.90      -99.90    
       -99.90      -99.90      -99.90      -99.90      -99.90      -99.90      -99.90      -99.90      -99.90      -99.90    
       -99.90      -99.90      -99.90      -99.90      -99.90      -99.90      -99.90      -99.90      -99.90      -99.90    
       -99.90      -99.90      -99.90      -99.90      -99.90      -99.90      -99.90      -99.90      -99.90      -99.90    
   9   -99.90      -99.90      -99.90      -99.90      -99.90      -99.90      -99.90      -99.90      -99.90      -99.90    
       -99.90      -99.90      -99.90      -99.90      -99.90      -99.90      -99.90      -99.90      -99.90      -99.90    
       -99.90      -99.90      -99.90      -99.90      -99.90      -99.90      -99.90      -99.90      -99.90      -99.90    
       -99.90      -99.90      -99.90      -99.90      -99.90      -99.90      -99.90      -99.90      -99.90      -99.90    
  10   -99.90      -99.90      -99.90      -99.90      -99.90      -99.90      -99.90      -99.90      -99.90      -99.90    
       -99.90      -99.90      -99.90      -99.90      -99.90      -99.90      -99.90      -99.90      -99.90      -99.90    
       -99.90      -99.90      -99.90      -99.90      -99.90      -99.90      -99.90      -99.90      -99.90      -99.90    
       -99.90      -99.90      -99.90      -99.90      -99.90      -99.90      -99.90      -99.90      -99.90      -99.90    
  11   -99.90      -99.90      -99.90      -99.90      -99.90      -99.90      -99.90      -99.90      -99.90      -99.90    
       -99.90      -99.90      -99.90      -99.90      -99.90      -99.90      -99.90      -99.90      -99.90      -99.90    
       -99.90      -99.90      -99.90      -99.90      -99.90      -99.90      -99.90      -99.90      -99.90      -99.90    
       -99.90      -99.90      -99.90      -99.90      -99.90      -99.90      -99.90      -99.90      -99.90      -99.90    
  12   -99.90      -99.90      -99.90      -99.90      -99.90      -99.90      -99.90      -99.90      -99.90      -99.90    
       -99.90      -99.90      -99.90      -99.90      -99.90      -99.90      -99.90      -99.90      -99.90      -99.90    
       -99.90      -99.90      -99.90      -99.90      -99.90      -99.90      -99.90      -99.90      -99.90      -99.90    
       -99.90      -99.90      -99.90      -99.90      -99.90      -99.90      -99.90      -99.90      -99.90      -99.90    
  13   -99.90      -99.90      -99.90      -99.90      -99.90      -99.90      -99.90      -99.90      -99.90      -99.90    
       -99.90      -99.90      -99.90      -99.90      -99.90      -99.90      -99.90      -99.90      -99.90      -99.90    
       -99.90      -99.90      -99.90      -99.90      -99.90      -99.90      -99.90      -99.90      -99.90      -99.90    
       -99.90      -99.90      -99.90      -99.90      -99.90      -99.90      -99.90      -99.90      -99.90      -99.90    
  14   -99.90      -99.90      -99.90      -99.90      -99.90      -99.90      -99.90      -99.90      -99.90      -99.90    
       -99.90      -99.90      -99.90      -99.90      -99.90      -99.90      -99.90      -99.90      -99.90      -99.90    
       -99.90      -99.90      -99.90      -99.90      -99.90      -99.90      -99.90      -99.90      -99.90      -99.90    
       -99.90      -99.90      -99.90      -99.90      -99.90      -99.90      -99.90      -99.90      -99.90      -99.90    
  15   -99.90      -99.90      -99.90      -99.90      -99.90      -99.90      -99.90      -99.90      -99.90      -99.90    
       -99.90      -99.90      -99.90      -99.90      -99.90      -99.90      -99.90      -99.90      -99.90      -99.90    
       -99.90      -99.90      -99.90      -99.90      -99.90      -99.90      -99.90      -99.90      -99.90      -99.90    
       -99.90      -99.90      -99.90      -99.90      -99.90      -99.90      -99.90      -99.90      -99.90      -99.90    
  16   -99.90      -99.90      -99.90      -99.90      -99.90      -99.90      -99.90      -99.90      -99.90      -99.90    
       -99.90      -99.90      -99.90      -99.90      -99.90      -99.90      -99.90      -99.90      -99.90      -99.90    
       -99.90      -99.90      -99.90      -99.90      -99.90      -99.90      -99.90      -99.90      -99.90      -99.90    
       -99.90      -99.90      -99.90      -99.90      -99.90      -99.90      -99.90      -99.90      -99.90      -99.90    
  17   -99.90      -99.90      -99.90      -99.90      -99.90      -99.90      -99.90      -99.90      -99.90      -99.90    
       -99.90      -99.90      -99.90      -99.90      -99.90      -99.90      -99.90      -99.90      -99.90      -99.90    
       -99.90      -99.90      -99.90      -99.90      -99.90      -99.90      -99.90      -99.90      -99.90      -99.90    
       -99.90      -99.90      -99.90      -99.90      -99.90      -99.90      -99.90      -99.90      -99.90      -99.90    
  18   -99.90      -99.90      -99.90      -99.90      -99.90      -99.90      -99.90      -99.90      -99.90      -99.90    
       -99.90      -99.90      -99.90      -99.90      -99.90      -99.90      -99.90      -99.90      -99.90      -99.90    
       -99.90      -99.90      -99.90      -99.90      -99.90      -99.90      -99.90      -99.90      -99.90      -99.90    
       -99.90      -99.90      -99.90      -99.90      -99.90      -99.90      -99.90      -99.90      -99.90      -99.90    
  19   -99.90      -99.90      -99.90      -99.90      -99.90      -99.90      -99.90      -99.90      -99.90      -99.90    
       -99.90      -99.90      -99.90      -99.90      -99.90      -99.90      -99.90      -99.90      -99.90      -99.90    
       -99.90      -99.90      -99.90      -99.90      -99.90      -99.90      -99.90      -99.90      -99.90      -99.90    
       -99.90      -99.90      -99.90      -99.90      -99.90      -99.90      -99.90      -99.90      -99.90      -99.90    
  20   -99.90      -99.90      -99.90      -99.90      -99.90      -99.90      -99.90      -99.90      -99.90      -99.90    
       -99.90      -99.90      -99.90      -99.90      -99.90      -99.90      -99.90      -99.90      -99.90      -99.90    
       -99.90      -99.90      -99.90      -99.90      -99.90      -99.90      -99.90      -99.90      -99.90      -99.90    
       -99.90      -99.90      -99.90      -99.90      -99.90      -99.90      -99.90      -99.90      -99.90      -99.90    
  21   -99.90      -99.90      -99.90      -99.90      -99.90      -99.90      -99.90      -99.90      -99.90      -99.90    
       -99.90      -99.90      -99.90      -99.90      -99.90      -99.90      -99.90      -99.90      -99.90      -99.90    
       -99.90      -99.90      -99.90      -99.90      -99.90      -99.90      -99.90      -99.90      -99.90      -99.90    
       -99.90      -99.90      -99.90      -99.90      -99.90      -99.90      -99.90      -99.90      -99.90      -99.90    
  22   -99.90      -99.90      -99.90      -99.90      -99.90      -99.90      -99.90      -99.90      -99.90      -99.90    
       -99.90      -99.90      -99.90      -99.90      -99.90      -99.90      -99.90      -99.90      -99.90      -99.90    
       -99.90      -99.90      -99.90      -99.90      -99.90      -99.90      -99.90      -99.90      -99.90      -99.90    
       -99.90      -99.90      -99.90      -99.90      -99.90      -99.90      -99.90      -99.90      -99.90      -99.90    
  23   -99.90      -99.90      -99.90      -99.90      -99.90      -99.90      -99.90      -99.90      -99.90      -99.90    
       -99.90      -99.90      -99.90      -99.90      -99.90      -99.90      -99.90      -99.90      -99.90      -99.90    
       -99.90      -99.90      -99.90      -99.90      -99.90      -99.90      -99.90      -99.90      -99.90      -99.90    
       -99.90      -99.90      -99.90      -99.90      -99.90      -99.90      -99.90      -99.90      -99.90      -99.90    
  24   -99.90      -99.90      -99.90      -99.90      -99.90      -99.90      -99.90      -99.90      -99.90      -99.90    
       -99.90      -99.90      -99.90      -99.90      -99.90      -99.90      -99.90      -99.90      -99.90      -99.90    
       -99.90      -99.90      -99.90      -99.90      -99.90      -99.90      -99.90      -99.90      -99.90      -99.90    
       -99.90      -99.90      -99.90      -99.90      -99.90      -99.90      -99.90      -99.90      -99.90      -99.90    
  25   -99.90      -99.90      -99.90      -99.90      -99.90      -99.90      -99.90      -99.90      -99.90      -99.90    
       -99.90      -99.90      -99.90      -99.90      -99.90      -99.90      -99.90      -99.90      -99.90      -99.90    
       -99.90      -99.90      -99.90      -99.90      -99.90      -99.90      -99.90      -99.90      -99.90      -99.90    
       -99.90      -99.90      -99.90      -99.90      -99.90      -99.90      -99.90      -99.90      -99.90      -99.90    
  26   -99.90      -99.90      -99.90      -99.90      -99.90      -99.90      -99.90      -99.90      -99.90      -99.90    
       -99.90      -99.90      -99.90      -99.90      -99.90      -99.90      -99.90      -99.90      -99.90      -99.90    
       -99.90      -99.90      -99.90      -99.90      -99.90      -99.90      -99.90      -99.90      -99.90      -99.90    
       -99.90      -99.90      -99.90      -99.90      -99.90      -99.90      -99.90      -99.90      -99.90      -99.90    
  27   -99.90      -99.90      -99.90      -99.90      -99.90      -99.90      -99.90      -99.90      -99.90      -99.90    
       -99.90      -99.90      -99.90      -99.90      -99.90      -99.90      -99.90      -99.90      -99.90      -99.90    
       -99.90      -99.90      -99.90      -99.90      -99.90      -99.90      -99.90      -99.90      -99.90      -99.90    
       -99.90      -99.90      -99.90      -99.90      -99.90      -99.90      -99.90      -99.90      -99.90      -99.90    
  28   -99.90      -99.90      -99.90      -99.90      -99.90      -99.90      -99.90      -99.90      -99.90      -99.90    
       -99.90      -99.90      -99.90      -99.90      -99.90      -99.90      -99.90      -99.90      -99.90      -99.90    
       -99.90      -99.90      -99.90      -99.90      -99.90      -99.90      -99.90      -99.90      -99.90      -99.90    
       -99.90      -99.90      -99.90      -99.90      -99.90      -99.90      -99.90      -99.90      -99.90      -99.90    
  29   -99.90      -99.90      -99.90      -99.90      -99.90      -99.90      -99.90      -99.90      -99.90      -99.90    
       -99.90      -99.90      -99.90      -99.90      -99.90      -99.90      -99.90      -99.90      -99.90      -99.90    
       -99.90      -99.90      -99.90      -99.90      -99.90      -99.90      -99.90      -99.90      -99.90      -99.90    
       -99.90      -99.90      -99.90      -99.90      -99.90      -99.90      -99.90      -99.90      -99.90      -99.90    
  30   -99.90      -99.90      -99.90      -99.90      -99.90      -99.90      -99.90      -99.90      -99.90      -99.90    
       -99.90      -99.90      -99.90      -99.90      -99.90      -99.90      -99.90      -99.90      -99.90      -99.90    
       -99.90      -99.90      -99.90      -99.90      -99.90      -99.90      -99.90      -99.90      -99.90      -99.90    
       -99.90      -99.90      -99.90      -99.90      -99.90      -99.90      -99.90      -99.90      -99.90      -99.90    
  31   -99.90      -99.90      -99.90      -99.90      -99.90      -99.90      -99.90      -99.90      -99.90      -99.90    
       -99.90      -99.90      -99.90      -99.90      -99.90      -99.90      -99.90      -99.90      -99.90      -99.90    
       -99.90      -99.90      -99.90      -99.90      -99.90      -99.90      -99.90      -99.90      -99.90      -99.90    
       -99.90      -99.90      -99.90      -99.90      -99.90      -99.90      -99.90      -99.90      -99.90      -99.90    
  32   -99.90      -99.90      -99.90      -99.90      -99.90      -99.90      -99.90      -99.90      -99.90      -99.90    
       -99.90      -99.90      -99.90      -99.90      -99.90      -99.90      -99.90      -99.90      -99.90      -99.90    
       -99.90      -99.90      -99.90      -99.90      -99.90      -99.90      -99.90      -99.90      -99.90      -99.90    
       -99.90      -99.90      -99.90      -99.90      -99.90      -99.90      -99.90      -99.90      -99.90      -99.90    
  33   -99.90      -99.90      -99.90      -99.90      -99.90      -99.90      -99.90      -99.90      -99.90      -99.90    
       -99.90      -99.90      -99.90      -99.90      -99.90      -99.90      -99.90      -99.90      -99.90      -99.90    
       -99.90      -99.90      -99.90      -99.90      -99.90      -99.90      -99.90      -99.90      -99.90      -99.90    
       -99.90      -99.90      -99.90      -99.90      -99.90      -99.90      -99.90      -99.90      -99.90      -99.90    
  34   -99.90      -99.90      -99.90      -99.90      -99.90      -99.90      -99.90      -99.90      -99.90      -99.90    
       -99.90      -99.90      -99.90      -99.90      -99.90      -99.90      -99.90      -99.90      -99.90      -99.90    
       -99.90      -99.90      -99.90      -99.90      -99.90      -99.90      -99.90      -99.90      -99.90      -99.90    
       -99.90      -99.90      -99.90      -99.90      -99.90      -99.90      -99.90      -99.90      -99.90      -99.90    
  35   -99.90      -99.90      -99.90      -99.90      -99.90      -99.90      -99.90      -99.90      -99.90      -99.90    
       -99.90      -99.90      -99.90      -99.90      -99.90      -99.90      -99.90      -99.90      -99.90      -99.90    
       -99.90      -99.90      -99.90      -99.90      -99.90      -99.90      -99.90      -99.90      -99.90      -99.90    
       -99.90      -99.90      -99.90      -99.90      -99.90      -99.90      -99.90      -99.90      -99.90      -99.90    
  36   -99.90      -99.90      -99.90      -99.90      -99.90      -99.90      -99.90      -99.90      -99.90      -99.90    
       -99.90      -99.90      -99.90      -99.90      -99.90      -99.90      -99.90      -99.90      -99.90      -99.90    
       -99.90      -99.90      -99.90      -99.90      -99.90      -99.90      -99.90      -99.90      -99.90      -99.90    
       -99.90      -99.90      -99.90      -99.90      -99.90      -99.90      -99.90      -99.90      -99.90      -99.90    
  37   -99.90      -99.90      -99.90      -99.90      -99.90      -99.90      -99.90      -99.90      -99.90      -99.90    
       -99.90      -99.90      -99.90      -99.90      -99.90      -99.90      -99.90      -99.90      -99.90      -99.90    
       -99.90      -99.90      -99.90      -99.90      -99.90      -99.90      -99.90      -99.90      -99.90      -99.90    
       -99.90      -99.90      -99.90      -99.90      -99.90      -99.90      -99.90      -99.90      -99.90      -99.90    
  38   -99.90      -99.90      -99.90      -99.90      -99.90      -99.90      -99.90      -99.90      -99.90      -99.90    
       -99.90      -99.90      -99.90      -99.90      -99.90      -99.90      -99.90      -99.90      -99.90      -99.90    
       -99.90      -99.90      -99.90      -99.90      -99.90      -99.90      -99.90      -99.90      -99.90      -99.90    
       -99.90      -99.90      -99.90      -99.90      -99.90      -99.90      -99.90      -99.90      -99.90      -99.90    
  39   -99.90      -99.90      -99.90      -99.90      -99.90      -99.90      -99.90      -99.90      -99.90      -99.90    
       -99.90      -99.90      -99.90      -99.90      -99.90      -99.90      -99.90      -99.90      -99.90      -99.90    
       -99.90      -99.90      -99.90      -99.90      -99.90      -99.90      -99.90      -99.90      -99.90      -99.90    
       -99.90      -99.90      -99.90      -99.90      -99.90      -99.90      -99.90      -99.90      -99.90      -99.90    
  40   -99.90      -99.90      -99.90      -99.90      -99.90      -99.90      -99.90      -99.90      -99.90      -99.90    
       -99.90      -99.90      -99.90      -99.90      -99.90      -99.90      -99.90      -99.90      -99.90      -99.90    
       -99.90      -99.90      -99.90      -99.90      -99.90      -99.90      -99.90      -99.90      -99.90      -99.90    
       -99.90      -99.90      -99.90      -99.90      -99.90      -99.90      -99.90      -99.90      -99.90      -99.90    
1
              HEAD IN LAYER 5 AT END OF TIME STEP 2 IN STRESS PERIOD 2
  ---------------------------------------------------------------------------

            1           2           3           4           5           6           7           8           9          10
           11          12          13          14          15          16          17          18          19          20
           21          22          23          24          25          26          27          28          29          30
           31          32          33          34          35          36          37          38          39          40
 ........................................................................................................................
   1    47.62       45.96      -99.90      -99.90      -99.90      -99.90      -99.90      -99.90      -99.90      -99.90    
       -99.90      -99.90      -99.90      -99.90      -99.90      -99.90      -99.90      -99.90      -99.90      -99.90    
       -99.90      -99.90      -99.90      -99.90      -99.90      -99.90      -99.90      -99.90      -99.90      -99.90    
       -99.90      -99.90      -99.90      -99.90      -99.90      -99.90      -99.90      -99.90      -99.90      -99.90    
   2    45.96      -99.90      -99.90      -99.90      -99.90      -99.90      -99.90      -99.90      -99.90      -99.90    
       -99.90      -99.90      -99.90      -99.90      -99.90      -99.90      -99.90      -99.90      -99.90      -99.90    
       -99.90      -99.90      -99.90      -99.90      -99.90      -99.90      -99.90      -99.90      -99.90      -99.90    
       -99.90      -99.90      -99.90      -99.90      -99.90      -99.90      -99.90      -99.90      -99.90      -99.90    
   3   -99.90      -99.90      -99.90      -99.90      -99.90      -99.90      -99.90      -99.90      -99.90      -99.90    
       -99.90      -99.90      -99.90      -99.90      -99.90      -99.90      -99.90      -99.90      -99.90      -99.90    
       -99.90      -99.90      -99.90      -99.90      -99.90      -99.90      -99.90      -99.90      -99.90      -99.90    
       -99.90      -99.90      -99.90      -99.90      -99.90      -99.90      -99.90      -99.90      -99.90      -99.90    
   4   -99.90      -99.90      -99.90      -99.90      -99.90      -99.90      -99.90      -99.90      -99.90      -99.90    
       -99.90      -99.90      -99.90      -99.90      -99.90      -99.90      -99.90      -99.90      -99.90      -99.90    
       -99.90      -99.90      -99.90      -99.90      -99.90      -99.90      -99.90      -99.90      -99.90      -99.90    
       -99.90      -99.90      -99.90      -99.90      -99.90      -99.90      -99.90      -99.90      -99.90      -99.90    
   5   -99.90      -99.90      -99.90      -99.90      -99.90      -99.90      -99.90      -99.90      -99.90      -99.90    
       -99.90      -99.90      -99.90      -99.90      -99.90      -99.90      -99.90      -99.90      -99.90      -99.90    
       -99.90      -99.90      -99.90      -99.90      -99.90      -99.90      -99.90      -99.90      -99.90      -99.90    
       -99.90      -99.90      -99.90      -99.90      -99.90      -99.90      -99.90      -99.90      -99.90      -99.90    
   6   -99.90      -99.90      -99.90      -99.90      -99.90      -99.90      -99.90      -99.90      -99.90      -99.90    
       -99.90      -99.90      -99.90      -99.90      -99.90      -99.90      -99.90      -99.90      -99.90      -99.90    
       -99.90      -99.90      -99.90      -99.90      -99.90      -99.90      -99.90      -99.90      -99.90      -99.90    
       -99.90      -99.90      -99.90      -99.90      -99.90      -99.90      -99.90      -99.90      -99.90      -99.90    
   7   -99.90      -99.90      -99.90      -99.90      -99.90      -99.90      -99.90      -99.90      -99.90      -99.90    
       -99.90      -99.90      -99.90      -99.90      -99.90      -99.90      -99.90      -99.90      -99.90      -99.90    
       -99.90      -99.90      -99.90      -99.90      -99.90      -99.90      -99.90      -99.90      -99.90      -99.90    
       -99.90      -99.90      -99.90      -99.90      -99.90      -99.90      -99.90      -99.90      -99.90      -99.90    
   8   -99.90      -99.90      -99.90      -99.90      -99.90      -99.90      -99.90      -99.90      -99.90      -99.90    
       -99.90      -99.90      -99.90      -99.90      -99.90      -99.90      -99.90      -99.90      -99.90      -99.90    
       -99.90      -99.90      -99.90      -99.90      -99.90      -99.90      -99.90      -99.90      -99.90      -99.90    
       -99.90      -99.90      -99.90      -99.90      -99.90      -99.90      -99.90      -99.90      -99.90      -99.90    
   9   -99.90      -99.90      -99.90      -99.90      -99.90      -99.90      -99.90      -99.90      -99.90      -99.90    
       -99.90      -99.90      -99.90      -99.90      -99.90      -99.90      -99.90      -99.90      -99.90      -99.90    
       -99.90      -99.90      -99.90      -99.90      -99.90      -99.90      -99.90      -99.90      -99.90      -99.90    
       -99.90      -99.90      -99.90      -99.90      -99.90      -99.90      -99.90      -99.90      -99.90      -99.90    
  10   -99.90      -99.90      -99.90      -99.90      -99.90      -99.90      -99.90      -99.90      -99.90      -99.90    
       -99.90      -99.90      -99.90      -99.90      -99.90      -99.90      -99.90      -99.90      -99.90      -99.90    
       -99.90      -99.90      -99.90      -99.90      -99.90      -99.90      -99.90      -99.90      -99.90      -99.90    
       -99.90      -99.90      -99.90      -99.90      -99.90      -99.90      -99.90      -99.90      -99.90      -99.90    
  11   -99.90      -99.90      -99.90      -99.90      -99.90      -99.90      -99.90      -99.90      -99.90      -99.90    
       -99.90      -99.90      -99.90      -99.90      -99.90      -99.90      -99.90      -99.90      -99.90      -99.90    
       -99.90      -99.90      -99.90      -99.90      -99.90      -99.90      -99.90      -99.90      -99.90      -99.90    
       -99.90      -99.90      -99.90      -99.90      -99.90      -99.90      -99.90      -99.90      -99.90      -99.90    
  12   -99.90      -99.90      -99.90      -99.90      -99.90      -99.90      -99.90      -99.90      -99.90      -99.90    
       -99.90      -99.90      -99.90      -99.90      -99.90      -99.90      -99.90      -99.90      -99.90      -99.90    
       -99.90      -99.90      -99.90      -99.90      -99.90      -99.90      -99.90      -99.90      -99.90      -99.90    
       -99.90      -99.90      -99.90      -99.90      -99.90      -99.90      -99.90      -99.90      -99.90      -99.90    
  13   -99.90      -99.90      -99.90      -99.90      -99.90      -99.90      -99.90      -99.90      -99.90      -99.90    
       -99.90      -99.90      -99.90      -99.90      -99.90      -99.90      -99.90      -99.90      -99.90      -99.90    
       -99.90      -99.90      -99.90      -99.90      -99.90      -99.90      -99.90      -99.90      -99.90      -99.90    
       -99.90      -99.90      -99.90      -99.90      -99.90      -99.90      -99.90      -99.90      -99.90      -99.90    
  14   -99.90      -99.90      -99.90      -99.90      -99.90      -99.90      -99.90      -99.90      -99.90      -99.90    
       -99.90      -99.90      -99.90      -99.90      -99.90      -99.90      -99.90      -99.90      -99.90      -99.90    
       -99.90      -99.90      -99.90      -99.90      -99.90      -99.90      -99.90      -99.90      -99.90      -99.90    
       -99.90      -99.90      -99.90      -99.90      -99.90      -99.90      -99.90      -99.90      -99.90      -99.90    
  15   -99.90      -99.90      -99.90      -99.90      -99.90      -99.90      -99.90      -99.90      -99.90      -99.90    
       -99.90      -99.90      -99.90      -99.90      -99.90      -99.90      -99.90      -99.90      -99.90      -99.90    
       -99.90      -99.90      -99.90      -99.90      -99.90      -99.90      -99.90      -99.90      -99.90      -99.90    
       -99.90      -99.90      -99.90      -99.90      -99.90      -99.90      -99.90      -99.90      -99.90      -99.90    
  16   -99.90      -99.90      -99.90      -99.90      -99.90      -99.90      -99.90      -99.90      -99.90      -99.90    
       -99.90      -99.90      -99.90      -99.90      -99.90      -99.90      -99.90      -99.90      -99.90      -99.90    
       -99.90      -99.90      -99.90      -99.90      -99.90      -99.90      -99.90      -99.90      -99.90      -99.90    
       -99.90      -99.90      -99.90      -99.90      -99.90      -99.90      -99.90      -99.90      -99.90      -99.90    
  17   -99.90      -99.90      -99.90      -99.90      -99.90      -99.90      -99.90      -99.90      -99.90      -99.90    
       -99.90      -99.90      -99.90      -99.90      -99.90      -99.90      -99.90      -99.90      -99.90      -99.90    
       -99.90      -99.90      -99.90      -99.90      -99.90      -99.90      -99.90      -99.90      -99.90      -99.90    
       -99.90      -99.90      -99.90      -99.90      -99.90      -99.90      -99.90      -99.90      -99.90      -99.90    
  18   -99.90      -99.90      -99.90      -99.90      -99.90      -99.90      -99.90      -99.90      -99.90      -99.90    
       -99.90      -99.90      -99.90      -99.90      -99.90      -99.90      -99.90      -99.90      -99.90      -99.90    
       -99.90      -99.90      -99.90      -99.90      -99.90      -99.90      -99.90      -99.90      -99.90      -99.90    
       -99.90      -99.90      -99.90      -99.90      -99.90      -99.90      -99.90      -99.90      -99.90      -99.90    
  19   -99.90      -99.90      -99.90      -99.90      -99.90      -99.90      -99.90      -99.90      -99.90      -99.90    
       -99.90      -99.90      -99.90      -99.90      -99.90      -99.90      -99.90      -99.90      -99.90      -99.90    
       -99.90      -99.90      -99.90      -99.90      -99.90      -99.90      -99.90      -99.90      -99.90      -99.90    
       -99.90      -99.90      -99.90      -99.90      -99.90      -99.90      -99.90      -99.90      -99.90      -99.90    
  20   -99.90      -99.90      -99.90      -99.90      -99.90      -99.90      -99.90      -99.90      -99.90      -99.90    
       -99.90      -99.90      -99.90      -99.90      -99.90      -99.90      -99.90      -99.90      -99.90      -99.90    
       -99.90      -99.90      -99.90      -99.90      -99.90      -99.90      -99.90      -99.90      -99.90      -99.90    
       -99.90      -99.90      -99.90      -99.90      -99.90      -99.90      -99.90      -99.90      -99.90      -99.90    
  21   -99.90      -99.90      -99.90      -99.90      -99.90      -99.90      -99.90      -99.90      -99.90      -99.90    
       -99.90      -99.90      -99.90      -99.90      -99.90      -99.90      -99.90      -99.90      -99.90      -99.90    
       -99.90      -99.90      -99.90      -99.90      -99.90      -99.90      -99.90      -99.90      -99.90      -99.90    
       -99.90      -99.90      -99.90      -99.90      -99.90      -99.90      -99.90      -99.90      -99.90      -99.90    
  22   -99.90      -99.90      -99.90      -99.90      -99.90      -99.90      -99.90      -99.90      -99.90      -99.90    
       -99.90      -99.90      -99.90      -99.90      -99.90      -99.90      -99.90      -99.90      -99.90      -99.90    
       -99.90      -99.90      -99.90      -99.90      -99.90      -99.90      -99.90      -99.90      -99.90      -99.90    
       -99.90      -99.90      -99.90      -99.90      -99.90      -99.90      -99.90      -99.90      -99.90      -99.90    
  23   -99.90      -99.90      -99.90      -99.90      -99.90      -99.90      -99.90      -99.90      -99.90      -99.90    
       -99.90      -99.90      -99.90      -99.90      -99.90      -99.90      -99.90      -99.90      -99.90      -99.90    
       -99.90      -99.90      -99.90      -99.90      -99.90      -99.90      -99.90      -99.90      -99.90      -99.90    
       -99.90      -99.90      -99.90      -99.90      -99.90      -99.90      -99.90      -99.90      -99.90      -99.90    
  24   -99.90      -99.90      -99.90      -99.90      -99.90      -99.90      -99.90      -99.90      -99.90      -99.90    
       -99.90      -99.90      -99.90      -99.90      -99.90      -99.90      -99.90      -99.90      -99.90      -99.90    
       -99.90      -99.90      -99.90      -99.90      -99.90      -99.90      -99.90      -99.90      -99.90      -99.90    
       -99.90      -99.90      -99.90      -99.90      -99.90      -99.90      -99.90      -99.90      -99.90      -99.90    
  25   -99.90      -99.90      -99.90      -99.90      -99.90      -99.90      -99.90      -99.90      -99.90      -99.90    
       -99.90      -99.90      -99.90      -99.90      -99.90      -99.90      -99.90      -99.90      -99.90      -99.90    
       -99.90      -99.90      -99.90      -99.90      -99.90      -99.90      -99.90      -99.90      -99.90      -99.90    
       -99.90      -99.90      -99.90      -99.90      -99.90      -99.90      -99.90      -99.90      -99.90      -99.90    
  26   -99.90      -99.90      -99.90      -99.90      -99.90      -99.90      -99.90      -99.90      -99.90      -99.90    
       -99.90      -99.90      -99.90      -99.90      -99.90      -99.90      -99.90      -99.90      -99.90      -99.90    
       -99.90      -99.90      -99.90      -99.90      -99.90      -99.90      -99.90      -99.90      -99.90      -99.90    
       -99.90      -99.90      -99.90      -99.90      -99.90      -99.90      -99.90      -99.90      -99.90      -99.90    
  27   -99.90      -99.90      -99.90      -99.90      -99.90      -99.90      -99.90      -99.90      -99.90      -99.90    
       -99.90      -99.90      -99.90      -99.90      -99.90      -99.90      -99.90      -99.90      -99.90      -99.90    
       -99.90      -99.90      -99.90      -99.90      -99.90      -99.90      -99.90      -99.90      -99.90      -99.90    
       -99.90      -99.90      -99.90      -99.90      -99.90      -99.90      -99.90      -99.90      -99.90      -99.90    
  28   -99.90      -99.90      -99.90      -99.90      -99.90      -99.90      -99.90      -99.90      -99.90      -99.90    
       -99.90      -99.90      -99.90      -99.90      -99.90      -99.90      -99.90      -99.90      -99.90      -99.90    
       -99.90      -99.90      -99.90      -99.90      -99.90      -99.90      -99.90      -99.90      -99.90      -99.90    
       -99.90      -99.90      -99.90      -99.90      -99.90      -99.90      -99.90      -99.90      -99.90      -99.90    
  29   -99.90      -99.90      -99.90      -99.90      -99.90      -99.90      -99.90      -99.90      -99.90      -99.90    
       -99.90      -99.90      -99.90      -99.90      -99.90      -99.90      -99.90      -99.90      -99.90      -99.90    
       -99.90      -99.90      -99.90      -99.90      -99.90      -99.90      -99.90      -99.90      -99.90      -99.90    
       -99.90      -99.90      -99.90      -99.90      -99.90      -99.90      -99.90      -99.90      -99.90      -99.90    
  30   -99.90      -99.90      -99.90      -99.90      -99.90      -99.90      -99.90      -99.90      -99.90      -99.90    
       -99.90      -99.90      -99.90      -99.90      -99.90      -99.90      -99.90      -99.90      -99.90      -99.90    
       -99.90      -99.90      -99.90      -99.90      -99.90      -99.90      -99.90      -99.90      -99.90      -99.90    
       -99.90      -99.90      -99.90      -99.90      -99.90      -99.90      -99.90      -99.90      -99.90      -99.90    
  31   -99.90      -99.90      -99.90      -99.90      -99.90      -99.90      -99.90      -99.90      -99.90      -99.90    
       -99.90      -99.90      -99.90      -99.90      -99.90      -99.90      -99.90      -99.90      -99.90      -99.90    
       -99.90      -99.90      -99.90      -99.90      -99.90      -99.90      -99.90      -99.90      -99.90      -99.90    
       -99.90      -99.90      -99.90      -99.90      -99.90      -99.90      -99.90      -99.90      -99.90      -99.90    
  32   -99.90      -99.90      -99.90      -99.90      -99.90      -99.90      -99.90      -99.90      -99.90      -99.90    
       -99.90      -99.90      -99.90      -99.90      -99.90      -99.90      -99.90      -99.90      -99.90      -99.90    
       -99.90      -99.90      -99.90      -99.90      -99.90      -99.90      -99.90      -99.90      -99.90      -99.90    
       -99.90      -99.90      -99.90      -99.90      -99.90      -99.90      -99.90      -99.90      -99.90      -99.90    
  33   -99.90      -99.90      -99.90      -99.90      -99.90      -99.90      -99.90      -99.90      -99.90      -99.90    
       -99.90      -99.90      -99.90      -99.90      -99.90      -99.90      -99.90      -99.90      -99.90      -99.90    
       -99.90      -99.90      -99.90      -99.90      -99.90      -99.90      -99.90      -99.90      -99.90      -99.90    
       -99.90      -99.90      -99.90      -99.90      -99.90      -99.90      -99.90      -99.90      -99.90      -99.90    
  34   -99.90      -99.90      -99.90      -99.90      -99.90      -99.90      -99.90      -99.90      -99.90      -99.90    
       -99.90      -99.90      -99.90      -99.90      -99.90      -99.90      -99.90      -99.90      -99.90      -99.90    
       -99.90      -99.90      -99.90      -99.90      -99.90      -99.90      -99.90      -99.90      -99.90      -99.90    
       -99.90      -99.90      -99.90      -99.90      -99.90      -99.90      -99.90      -99.90      -99.90      -99.90    
  35   -99.90      -99.90      -99.90      -99.90      -99.90      -99.90      -99.90      -99.90      -99.90      -99.90    
       -99.90      -99.90      -99.90      -99.90      -99.90      -99.90      -99.90      -99.90      -99.90      -99.90    
       -99.90      -99.90      -99.90      -99.90      -99.90      -99.90      -99.90      -99.90      -99.90      -99.90    
       -99.90      -99.90      -99.90      -99.90      -99.90      -99.90      -99.90      -99.90      -99.90      -99.90    
  36   -99.90      -99.90      -99.90      -99.90      -99.90      -99.90      -99.90      -99.90      -99.90      -99.90    
       -99.90      -99.90      -99.90      -99.90      -99.90      -99.90      -99.90      -99.90      -99.90      -99.90    
       -99.90      -99.90      -99.90      -99.90      -99.90      -99.90      -99.90      -99.90      -99.90      -99.90    
       -99.90      -99.90      -99.90      -99.90      -99.90      -99.90      -99.90      -99.90      -99.90      -99.90    
  37   -99.90      -99.90      -99.90      -99.90      -99.90      -99.90      -99.90      -99.90      -99.90      -99.90    
       -99.90      -99.90      -99.90      -99.90      -99.90      -99.90      -99.90      -99.90      -99.90      -99.90    
       -99.90      -99.90      -99.90      -99.90      -99.90      -99.90      -99.90      -99.90      -99.90      -99.90    
       -99.90      -99.90      -99.90      -99.90      -99.90      -99.90      -99.90      -99.90      -99.90      -99.90    
  38   -99.90      -99.90      -99.90      -99.90      -99.90      -99.90      -99.90      -99.90      -99.90      -99.90    
       -99.90      -99.90      -99.90      -99.90      -99.90      -99.90      -99.90      -99.90      -99.90      -99.90    
       -99.90      -99.90      -99.90      -99.90      -99.90      -99.90      -99.90      -99.90      -99.90      -99.90    
       -99.90      -99.90      -99.90      -99.90      -99.90      -99.90      -99.90      -99.90      -99.90      -99.90    
  39   -99.90      -99.90      -99.90      -99.90      -99.90      -99.90      -99.90      -99.90      -99.90      -99.90    
       -99.90      -99.90      -99.90      -99.90      -99.90      -99.90      -99.90      -99.90      -99.90      -99.90    
       -99.90      -99.90      -99.90      -99.90      -99.90      -99.90      -99.90      -99.90      -99.90      -99.90    
       -99.90      -99.90      -99.90      -99.90      -99.90      -99.90      -99.90      -99.90      -99.90      -99.90    
  40   -99.90      -99.90      -99.90      -99.90      -99.90      -99.90      -99.90      -99.90      -99.90      -99.90    
       -99.90      -99.90      -99.90      -99.90      -99.90      -99.90      -99.90      -99.90      -99.90      -99.90    
       -99.90      -99.90      -99.90      -99.90      -99.90      -99.90      -99.90      -99.90      -99.90      -99.90    
       -99.90      -99.90      -99.90      -99.90      -99.90      -99.90      -99.90      -99.90      -99.90      -99.90    
1
              HEAD IN LAYER 6 AT END OF TIME STEP 2 IN STRESS PERIOD 2
  ---------------------------------------------------------------------------

            1           2           3           4           5           6           7           8           9          10
           11          12          13          14          15          16          17          18          19          20
           21          22          23          24          25          26          27          28          29          30
           31          32          33          34          35          36          37          38          39          40
 ........................................................................................................................
   1    46.70       45.00      -99.90      -99.90      -99.90      -99.90      -99.90      -99.90      -99.90      -99.90    
       -99.90      -99.90      -99.90      -99.90      -99.90      -99.90      -99.90      -99.90      -99.90      -99.90    
       -99.90      -99.90      -99.90      -99.90      -99.90      -99.90      -99.90      -99.90      -99.90      -99.90    
       -99.90      -99.90      -99.90      -99.90      -99.90      -99.90      -99.90      -99.90      -99.90      -99.90    
   2    45.00       43.65      -99.90      -99.90      -99.90      -99.90      -99.90      -99.90      -99.90      -99.90    
       -99.90      -99.90      -99.90      -99.90      -99.90      -99.90      -99.90      -99.90      -99.90      -99.90    
       -99.90      -99.90      -99.90      -99.90      -99.90      -99.90      -99.90      -99.90      -99.90      -99.90    
       -99.90      -99.90      -99.90      -99.90      -99.90      -99.90      -99.90      -99.90      -99.90      -99.90    
   3   -99.90      -99.90      -99.90      -99.90      -99.90      -99.90      -99.90      -99.90      -99.90      -99.90    
       -99.90      -99.90      -99.90      -99.90      -99.90      -99.90      -99.90      -99.90      -99.90      -99.90    
       -99.90      -99.90      -99.90      -99.90      -99.90      -99.90      -99.90      -99.90      -99.90      -99.90    
       -99.90      -99.90      -99.90      -99.90      -99.90      -99.90      -99.90      -99.90      -99.90      -99.90    
   4   -99.90      -99.90      -99.90      -99.90      -99.90      -99.90      -99.90      -99.90      -99.90      -99.90    
       -99.90      -99.90      -99.90      -99.90      -99.90      -99.90      -99.90      -99.90      -99.90      -99.90    
       -99.90      -99.90      -99.90      -99.90      -99.90      -99.90      -99.90      -99.90      -99.90      -99.90    
       -99.90      -99.90      -99.90      -99.90      -99.90      -99.90      -99.90      -99.90      -99.90      -99.90    
   5   -99.90      -99.90      -99.90      -99.90      -99.90      -99.90      -99.90      -99.90      -99.90      -99.90    
       -99.90      -99.90      -99.90      -99.90      -99.90      -99.90      -99.90      -99.90      -99.90      -99.90    
       -99.90      -99.90      -99.90      -99.90      -99.90      -99.90      -99.90      -99.90      -99.90      -99.90    
       -99.90      -99.90      -99.90      -99.90      -99.90      -99.90      -99.90      -99.90      -99.90      -99.90    
   6   -99.90      -99.90      -99.90      -99.90      -99.90      -99.90      -99.90      -99.90      -99.90      -99.90    
       -99.90      -99.90      -99.90      -99.90      -99.90      -99.90      -99.90      -99.90      -99.90      -99.90    
       -99.90      -99.90      -99.90      -99.90      -99.90      -99.90      -99.90      -99.90      -99.90      -99.90    
       -99.90      -99.90      -99.90      -99.90      -99.90      -99.90      -99.90      -99.90      -99.90      -99.90    
   7   -99.90      -99.90      -99.90      -99.90      -99.90      -99.90      -99.90      -99.90      -99.90      -99.90    
       -99.90      -99.90      -99.90      -99.90      -99.90      -99.90      -99.90      -99.90      -99.90      -99.90    
       -99.90      -99.90      -99.90      -99.90      -99.90      -99.90      -99.90      -99.90      -99.90      -99.90    
       -99.90      -99.90      -99.90      -99.90      -99.90      -99.90      -99.90      -99.90      -99.90      -99.90    
   8   -99.90      -99.90      -99.90      -99.90      -99.90      -99.90      -99.90      -99.90      -99.90      -99.90    
       -99.90      -99.90      -99.90      -99.90      -99.90      -99.90      -99.90      -99.90      -99.90      -99.90    
       -99.90      -99.90      -99.90      -99.90      -99.90      -99.90      -99.90      -99.90      -99.90      -99.90    
       -99.90      -99.90      -99.90      -99.90      -99.90      -99.90      -99.90      -99.90      -99.90      -99.90    
   9   -99.90      -99.90      -99.90      -99.90      -99.90      -99.90      -99.90      -99.90      -99.90      -99.90    
       -99.90      -99.90      -99.90      -99.90      -99.90      -99.90      -99.90      -99.90      -99.90      -99.90    
       -99.90      -99.90      -99.90      -99.90      -99.90      -99.90      -99.90      -99.90      -99.90      -99.90    
       -99.90      -99.90      -99.90      -99.90      -99.90      -99.90      -99.90      -99.90      -99.90      -99.90    
  10   -99.90      -99.90      -99.90      -99.90      -99.90      -99.90      -99.90      -99.90      -99.90      -99.90    
       -99.90      -99.90      -99.90      -99.90      -99.90      -99.90      -99.90      -99.90      -99.90      -99.90    
       -99.90      -99.90      -99.90      -99.90      -99.90      -99.90      -99.90      -99.90      -99.90      -99.90    
       -99.90      -99.90      -99.90      -99.90      -99.90      -99.90      -99.90      -99.90      -99.90      -99.90    
  11   -99.90      -99.90      -99.90      -99.90      -99.90      -99.90      -99.90      -99.90      -99.90      -99.90    
       -99.90      -99.90      -99.90      -99.90      -99.90      -99.90      -99.90      -99.90      -99.90      -99.90    
       -99.90      -99.90      -99.90      -99.90      -99.90      -99.90      -99.90      -99.90      -99.90      -99.90    
       -99.90      -99.90      -99.90      -99.90      -99.90      -99.90      -99.90      -99.90      -99.90      -99.90    
  12   -99.90      -99.90      -99.90      -99.90      -99.90      -99.90      -99.90      -99.90      -99.90      -99.90    
       -99.90      -99.90      -99.90      -99.90      -99.90      -99.90      -99.90      -99.90      -99.90      -99.90    
       -99.90      -99.90      -99.90      -99.90      -99.90      -99.90      -99.90      -99.90      -99.90      -99.90    
       -99.90      -99.90      -99.90      -99.90      -99.90      -99.90      -99.90      -99.90      -99.90      -99.90    
  13   -99.90      -99.90      -99.90      -99.90      -99.90      -99.90      -99.90      -99.90      -99.90      -99.90    
       -99.90      -99.90      -99.90      -99.90      -99.90      -99.90      -99.90      -99.90      -99.90      -99.90    
       -99.90      -99.90      -99.90      -99.90      -99.90      -99.90      -99.90      -99.90      -99.90      -99.90    
       -99.90      -99.90      -99.90      -99.90      -99.90      -99.90      -99.90      -99.90      -99.90      -99.90    
  14   -99.90      -99.90      -99.90      -99.90      -99.90      -99.90      -99.90      -99.90      -99.90      -99.90    
       -99.90      -99.90      -99.90      -99.90      -99.90      -99.90      -99.90      -99.90      -99.90      -99.90    
       -99.90      -99.90      -99.90      -99.90      -99.90      -99.90      -99.90      -99.90      -99.90      -99.90    
       -99.90      -99.90      -99.90      -99.90      -99.90      -99.90      -99.90      -99.90      -99.90      -99.90    
  15   -99.90      -99.90      -99.90      -99.90      -99.90      -99.90      -99.90      -99.90      -99.90      -99.90    
       -99.90      -99.90      -99.90      -99.90      -99.90      -99.90      -99.90      -99.90      -99.90      -99.90    
       -99.90      -99.90      -99.90      -99.90      -99.90      -99.90      -99.90      -99.90      -99.90      -99.90    
       -99.90      -99.90      -99.90      -99.90      -99.90      -99.90      -99.90      -99.90      -99.90      -99.90    
  16   -99.90      -99.90      -99.90      -99.90      -99.90      -99.90      -99.90      -99.90      -99.90      -99.90    
       -99.90      -99.90      -99.90      -99.90      -99.90      -99.90      -99.90      -99.90      -99.90      -99.90    
       -99.90      -99.90      -99.90      -99.90      -99.90      -99.90      -99.90      -99.90      -99.90      -99.90    
       -99.90      -99.90      -99.90      -99.90      -99.90      -99.90      -99.90      -99.90      -99.90      -99.90    
  17   -99.90      -99.90      -99.90      -99.90      -99.90      -99.90      -99.90      -99.90      -99.90      -99.90    
       -99.90      -99.90      -99.90      -99.90      -99.90      -99.90      -99.90      -99.90      -99.90      -99.90    
       -99.90      -99.90      -99.90      -99.90      -99.90      -99.90      -99.90      -99.90      -99.90      -99.90    
       -99.90      -99.90      -99.90      -99.90      -99.90      -99.90      -99.90      -99.90      -99.90      -99.90    
  18   -99.90      -99.90      -99.90      -99.90      -99.90      -99.90      -99.90      -99.90      -99.90      -99.90    
       -99.90      -99.90      -99.90      -99.90      -99.90      -99.90      -99.90      -99.90      -99.90      -99.90    
       -99.90      -99.90      -99.90      -99.90      -99.90      -99.90      -99.90      -99.90      -99.90      -99.90    
       -99.90      -99.90      -99.90      -99.90      -99.90      -99.90      -99.90      -99.90      -99.90      -99.90    
  19   -99.90      -99.90      -99.90      -99.90      -99.90      -99.90      -99.90      -99.90      -99.90      -99.90    
       -99.90      -99.90      -99.90      -99.90      -99.90      -99.90      -99.90      -99.90      -99.90      -99.90    
       -99.90      -99.90      -99.90      -99.90      -99.90      -99.90      -99.90      -99.90      -99.90      -99.90    
       -99.90      -99.90      -99.90      -99.90      -99.90      -99.90      -99.90      -99.90      -99.90      -99.90    
  20   -99.90      -99.90      -99.90      -99.90      -99.90      -99.90      -99.90      -99.90      -99.90      -99.90    
       -99.90      -99.90      -99.90      -99.90      -99.90      -99.90      -99.90      -99.90      -99.90      -99.90    
       -99.90      -99.90      -99.90      -99.90      -99.90      -99.90      -99.90      -99.90      -99.90      -99.90    
       -99.90      -99.90      -99.90      -99.90      -99.90      -99.90      -99.90      -99.90      -99.90      -99.90    
  21   -99.90      -99.90      -99.90      -99.90      -99.90      -99.90      -99.90      -99.90      -99.90      -99.90    
       -99.90      -99.90      -99.90      -99.90      -99.90      -99.90      -99.90      -99.90      -99.90      -99.90    
       -99.90      -99.90      -99.90      -99.90      -99.90      -99.90      -99.90      -99.90      -99.90      -99.90    
       -99.90      -99.90      -99.90      -99.90      -99.90      -99.90      -99.90      -99.90      -99.90      -99.90    
  22   -99.90      -99.90      -99.90      -99.90      -99.90      -99.90      -99.90      -99.90      -99.90      -99.90    
       -99.90      -99.90      -99.90      -99.90      -99.90      -99.90      -99.90      -99.90      -99.90      -99.90    
       -99.90      -99.90      -99.90      -99.90      -99.90      -99.90      -99.90      -99.90      -99.90      -99.90    
       -99.90      -99.90      -99.90      -99.90      -99.90      -99.90      -99.90      -99.90      -99.90      -99.90    
  23   -99.90      -99.90      -99.90      -99.90      -99.90      -99.90      -99.90      -99.90      -99.90      -99.90    
       -99.90      -99.90      -99.90      -99.90      -99.90      -99.90      -99.90      -99.90      -99.90      -99.90    
       -99.90      -99.90      -99.90      -99.90      -99.90      -99.90      -99.90      -99.90      -99.90      -99.90    
       -99.90      -99.90      -99.90      -99.90      -99.90      -99.90      -99.90      -99.90      -99.90      -99.90    
  24   -99.90      -99.90      -99.90      -99.90      -99.90      -99.90      -99.90      -99.90      -99.90      -99.90    
       -99.90      -99.90      -99.90      -99.90      -99.90      -99.90      -99.90      -99.90      -99.90      -99.90    
       -99.90      -99.90      -99.90      -99.90      -99.90      -99.90      -99.90      -99.90      -99.90      -99.90    
       -99.90      -99.90      -99.90      -99.90      -99.90      -99.90      -99.90      -99.90      -99.90      -99.90    
  25   -99.90      -99.90      -99.90      -99.90      -99.90      -99.90      -99.90      -99.90      -99.90      -99.90    
       -99.90      -99.90      -99.90      -99.90      -99.90      -99.90      -99.90      -99.90      -99.90      -99.90    
       -99.90      -99.90      -99.90      -99.90      -99.90      -99.90      -99.90      -99.90      -99.90      -99.90    
       -99.90      -99.90      -99.90      -99.90      -99.90      -99.90      -99.90      -99.90      -99.90      -99.90    
  26   -99.90      -99.90      -99.90      -99.90      -99.90      -99.90      -99.90      -99.90      -99.90      -99.90    
       -99.90      -99.90      -99.90      -99.90      -99.90      -99.90      -99.90      -99.90      -99.90      -99.90    
       -99.90      -99.90      -99.90      -99.90      -99.90      -99.90      -99.90      -99.90      -99.90      -99.90    
       -99.90      -99.90      -99.90      -99.90      -99.90      -99.90      -99.90      -99.90      -99.90      -99.90    
  27   -99.90      -99.90      -99.90      -99.90      -99.90      -99.90      -99.90      -99.90      -99.90      -99.90    
       -99.90      -99.90      -99.90      -99.90      -99.90      -99.90      -99.90      -99.90      -99.90      -99.90    
       -99.90      -99.90      -99.90      -99.90      -99.90      -99.90      -99.90      -99.90      -99.90      -99.90    
       -99.90      -99.90      -99.90      -99.90      -99.90      -99.90      -99.90      -99.90      -99.90      -99.90    
  28   -99.90      -99.90      -99.90      -99.90      -99.90      -99.90      -99.90      -99.90      -99.90      -99.90    
       -99.90      -99.90      -99.90      -99.90      -99.90      -99.90      -99.90      -99.90      -99.90      -99.90    
       -99.90      -99.90      -99.90      -99.90      -99.90      -99.90      -99.90      -99.90      -99.90      -99.90    
       -99.90      -99.90      -99.90      -99.90      -99.90      -99.90      -99.90      -99.90      -99.90      -99.90    
  29   -99.90      -99.90      -99.90      -99.90      -99.90      -99.90      -99.90      -99.90      -99.90      -99.90    
       -99.90      -99.90      -99.90      -99.90      -99.90      -99.90      -99.90      -99.90      -99.90      -99.90    
       -99.90      -99.90      -99.90      -99.90      -99.90      -99.90      -99.90      -99.90      -99.90      -99.90    
       -99.90      -99.90      -99.90      -99.90      -99.90      -99.90      -99.90      -99.90      -99.90      -99.90    
  30   -99.90      -99.90      -99.90      -99.90      -99.90      -99.90      -99.90      -99.90      -99.90      -99.90    
       -99.90      -99.90      -99.90      -99.90      -99.90      -99.90      -99.90      -99.90      -99.90      -99.90    
       -99.90      -99.90      -99.90      -99.90      -99.90      -99.90      -99.90      -99.90      -99.90      -99.90    
       -99.90      -99.90      -99.90      -99.90      -99.90      -99.90      -99.90      -99.90      -99.90      -99.90    
  31   -99.90      -99.90      -99.90      -99.90      -99.90      -99.90      -99.90      -99.90      -99.90      -99.90    
       -99.90      -99.90      -99.90      -99.90      -99.90      -99.90      -99.90      -99.90      -99.90      -99.90    
       -99.90      -99.90      -99.90      -99.90      -99.90      -99.90      -99.90      -99.90      -99.90      -99.90    
       -99.90      -99.90      -99.90      -99.90      -99.90      -99.90      -99.90      -99.90      -99.90      -99.90    
  32   -99.90      -99.90      -99.90      -99.90      -99.90      -99.90      -99.90      -99.90      -99.90      -99.90    
       -99.90      -99.90      -99.90      -99.90      -99.90      -99.90      -99.90      -99.90      -99.90      -99.90    
       -99.90      -99.90      -99.90      -99.90      -99.90      -99.90      -99.90      -99.90      -99.90      -99.90    
       -99.90      -99.90      -99.90      -99.90      -99.90      -99.90      -99.90      -99.90      -99.90      -99.90    
  33   -99.90      -99.90      -99.90      -99.90      -99.90      -99.90      -99.90      -99.90      -99.90      -99.90    
       -99.90      -99.90      -99.90      -99.90      -99.90      -99.90      -99.90      -99.90      -99.90      -99.90    
       -99.90      -99.90      -99.90      -99.90      -99.90      -99.90      -99.90      -99.90      -99.90      -99.90    
       -99.90      -99.90      -99.90      -99.90      -99.90      -99.90      -99.90      -99.90      -99.90      -99.90    
  34   -99.90      -99.90      -99.90      -99.90      -99.90      -99.90      -99.90      -99.90      -99.90      -99.90    
       -99.90      -99.90      -99.90      -99.90      -99.90      -99.90      -99.90      -99.90      -99.90      -99.90    
       -99.90      -99.90      -99.90      -99.90      -99.90      -99.90      -99.90      -99.90      -99.90      -99.90    
       -99.90      -99.90      -99.90      -99.90      -99.90      -99.90      -99.90      -99.90      -99.90      -99.90    
  35   -99.90      -99.90      -99.90      -99.90      -99.90      -99.90      -99.90      -99.90      -99.90      -99.90    
       -99.90      -99.90      -99.90      -99.90      -99.90      -99.90      -99.90      -99.90      -99.90      -99.90    
       -99.90      -99.90      -99.90      -99.90      -99.90      -99.90      -99.90      -99.90      -99.90      -99.90    
       -99.90      -99.90      -99.90      -99.90      -99.90      -99.90      -99.90      -99.90      -99.90      -99.90    
  36   -99.90      -99.90      -99.90      -99.90      -99.90      -99.90      -99.90      -99.90      -99.90      -99.90    
       -99.90      -99.90      -99.90      -99.90      -99.90      -99.90      -99.90      -99.90      -99.90      -99.90    
       -99.90      -99.90      -99.90      -99.90      -99.90      -99.90      -99.90      -99.90      -99.90      -99.90    
       -99.90      -99.90      -99.90      -99.90      -99.90      -99.90      -99.90      -99.90      -99.90      -99.90    
  37   -99.90      -99.90      -99.90      -99.90      -99.90      -99.90      -99.90      -99.90      -99.90      -99.90    
       -99.90      -99.90      -99.90      -99.90      -99.90      -99.90      -99.90      -99.90      -99.90      -99.90    
       -99.90      -99.90      -99.90      -99.90      -99.90      -99.90      -99.90      -99.90      -99.90      -99.90    
       -99.90      -99.90      -99.90      -99.90      -99.90      -99.90      -99.90      -99.90      -99.90      -99.90    
  38   -99.90      -99.90      -99.90      -99.90      -99.90      -99.90      -99.90      -99.90      -99.90      -99.90    
       -99.90      -99.90      -99.90      -99.90      -99.90      -99.90      -99.90      -99.90      -99.90      -99.90    
       -99.90      -99.90      -99.90      -99.90      -99.90      -99.90      -99.90      -99.90      -99.90      -99.90    
       -99.90      -99.90      -99.90      -99.90      -99.90      -99.90      -99.90      -99.90      -99.90      -99.90    
  39   -99.90      -99.90      -99.90      -99.90      -99.90      -99.90      -99.90      -99.90      -99.90      -99.90    
       -99.90      -99.90      -99.90      -99.90      -99.90      -99.90      -99.90      -99.90      -99.90      -99.90    
       -99.90      -99.90      -99.90      -99.90      -99.90      -99.90      -99.90      -99.90      -99.90      -99.90    
       -99.90      -99.90      -99.90      -99.90      -99.90      -99.90      -99.90      -99.90      -99.90      -99.90    
  40   -99.90      -99.90      -99.90      -99.90      -99.90      -99.90      -99.90      -99.90      -99.90      -99.90    
       -99.90      -99.90      -99.90      -99.90      -99.90      -99.90      -99.90      -99.90      -99.90      -99.90    
       -99.90      -99.90      -99.90      -99.90      -99.90      -99.90      -99.90      -99.90      -99.90      -99.90    
       -99.90      -99.90      -99.90      -99.90      -99.90      -99.90      -99.90      -99.90      -99.90      -99.90    
1
              HEAD IN LAYER 7 AT END OF TIME STEP 2 IN STRESS PERIOD 2
  ---------------------------------------------------------------------------

            1           2           3           4           5           6           7           8           9          10
           11          12          13          14          15          16          17          18          19          20
           21          22          23          24          25          26          27          28          29          30
           31          32          33          34          35          36          37          38          39          40
 ........................................................................................................................
   1    45.90       44.21       39.79       36.52      -99.90      -99.90      -99.90      -99.90      -99.90      -99.90    
       -99.90      -99.90      -99.90      -99.90      -99.90      -99.90      -99.90      -99.90      -99.90      -99.90    
       -99.90      -99.90      -99.90      -99.90      -99.90      -99.90      -99.90      -99.90      -99.90      -99.90    
       -99.90      -99.90      -99.90      -99.90      -99.90      -99.90      -99.90      -99.90      -99.90      -99.90    
   2    44.21       42.81       38.67       35.81      -99.90      -99.90      -99.90      -99.90      -99.90      -99.90    
       -99.90      -99.90      -99.90      -99.90      -99.90      -99.90      -99.90      -99.90      -99.90      -99.90    
       -99.90      -99.90      -99.90      -99.90      -99.90      -99.90      -99.90      -99.90      -99.90      -99.90    
       -99.90      -99.90      -99.90      -99.90      -99.90      -99.90      -99.90      -99.90      -99.90      -99.90    
   3    39.79       38.67       36.53      -99.90      -99.90      -99.90      -99.90      -99.90      -99.90      -99.90    
       -99.90      -99.90      -99.90      -99.90      -99.90      -99.90      -99.90      -99.90      -99.90      -99.90    
       -99.90      -99.90      -99.90      -99.90      -99.90      -99.90      -99.90      -99.90      -99.90      -99.90    
       -99.90      -99.90      -99.90      -99.90      -99.90      -99.90      -99.90      -99.90      -99.90      -99.90    
   4    36.52       35.81      -99.90      -99.90      -99.90      -99.90      -99.90      -99.90      -99.90      -99.90    
       -99.90      -99.90      -99.90      -99.90      -99.90      -99.90      -99.90      -99.90      -99.90      -99.90    
       -99.90      -99.90      -99.90      -99.90      -99.90      -99.90      -99.90      -99.90      -99.90      -99.90    
       -99.90      -99.90      -99.90      -99.90      -99.90      -99.90      -99.90      -99.90      -99.90      -99.90    
   5   -99.90      -99.90      -99.90      -99.90      -99.90      -99.90      -99.90      -99.90      -99.90      -99.90    
       -99.90      -99.90      -99.90      -99.90      -99.90      -99.90      -99.90      -99.90      -99.90      -99.90    
       -99.90      -99.90      -99.90      -99.90      -99.90      -99.90      -99.90      -99.90      -99.90      -99.90    
       -99.90      -99.90      -99.90      -99.90      -99.90      -99.90      -99.90      -99.90      -99.90      -99.90    
   6   -99.90      -99.90      -99.90      -99.90      -99.90      -99.90      -99.90      -99.90      -99.90      -99.90    
       -99.90      -99.90      -99.90      -99.90      -99.90      -99.90      -99.90      -99.90      -99.90      -99.90    
       -99.90      -99.90      -99.90      -99.90      -99.90      -99.90      -99.90      -99.90      -99.90      -99.90    
       -99.90      -99.90      -99.90      -99.90      -99.90      -99.90      -99.90      -99.90      -99.90      -99.90    
   7   -99.90      -99.90      -99.90      -99.90      -99.90      -99.90      -99.90      -99.90      -99.90      -99.90    
       -99.90      -99.90      -99.90      -99.90      -99.90      -99.90      -99.90      -99.90      -99.90      -99.90    
       -99.90      -99.90      -99.90      -99.90      -99.90      -99.90      -99.90      -99.90      -99.90      -99.90    
       -99.90      -99.90      -99.90      -99.90      -99.90      -99.90      -99.90      -99.90      -99.90      -99.90    
   8   -99.90      -99.90      -99.90      -99.90      -99.90      -99.90      -99.90      -99.90      -99.90      -99.90    
       -99.90      -99.90      -99.90      -99.90      -99.90      -99.90      -99.90      -99.90      -99.90      -99.90    
       -99.90      -99.90      -99.90      -99.90      -99.90      -99.90      -99.90      -99.90      -99.90      -99.90    
       -99.90      -99.90      -99.90      -99.90      -99.90      -99.90      -99.90      -99.90      -99.90      -99.90    
   9   -99.90      -99.90      -99.90      -99.90      -99.90      -99.90      -99.90      -99.90      -99.90      -99.90    
       -99.90      -99.90      -99.90      -99.90      -99.90      -99.90      -99.90      -99.90      -99.90      -99.90    
       -99.90      -99.90      -99.90      -99.90      -99.90      -99.90      -99.90      -99.90      -99.90      -99.90    
       -99.90      -99.90      -99.90      -99.90      -99.90      -99.90      -99.90      -99.90      -99.90      -99.90    
  10   -99.90      -99.90      -99.90      -99.90      -99.90      -99.90      -99.90      -99.90      -99.90      -99.90    
       -99.90      -99.90      -99.90      -99.90      -99.90      -99.90      -99.90      -99.90      -99.90      -99.90    
       -99.90      -99.90      -99.90      -99.90      -99.90      -99.90      -99.90      -99.90      -99.90      -99.90    
       -99.90      -99.90      -99.90      -99.90      -99.90      -99.90      -99.90      -99.90      -99.90      -99.90    
  11   -99.90      -99.90      -99.90      -99.90      -99.90      -99.90      -99.90      -99.90      -99.90      -99.90    
       -99.90      -99.90      -99.90      -99.90      -99.90      -99.90      -99.90      -99.90      -99.90      -99.90    
       -99.90      -99.90      -99.90      -99.90      -99.90      -99.90      -99.90      -99.90      -99.90      -99.90    
       -99.90      -99.90      -99.90      -99.90      -99.90      -99.90      -99.90      -99.90      -99.90      -99.90    
  12   -99.90      -99.90      -99.90      -99.90      -99.90      -99.90      -99.90      -99.90      -99.90      -99.90    
       -99.90      -99.90      -99.90      -99.90      -99.90      -99.90      -99.90      -99.90      -99.90      -99.90    
       -99.90      -99.90      -99.90      -99.90      -99.90      -99.90      -99.90      -99.90      -99.90      -99.90    
       -99.90      -99.90      -99.90      -99.90      -99.90      -99.90      -99.90      -99.90      -99.90      -99.90    
  13   -99.90      -99.90      -99.90      -99.90      -99.90      -99.90      -99.90      -99.90      -99.90      -99.90    
       -99.90      -99.90      -99.90      -99.90      -99.90      -99.90      -99.90      -99.90      -99.90      -99.90    
       -99.90      -99.90      -99.90      -99.90      -99.90      -99.90      -99.90      -99.90      -99.90      -99.90    
       -99.90      -99.90      -99.90      -99.90      -99.90      -99.90      -99.90      -99.90      -99.90      -99.90    
  14   -99.90      -99.90      -99.90      -99.90      -99.90      -99.90      -99.90      -99.90      -99.90      -99.90    
       -99.90      -99.90      -99.90      -99.90      -99.90      -99.90      -99.90      -99.90      -99.90      -99.90    
       -99.90      -99.90      -99.90      -99.90      -99.90      -99.90      -99.90      -99.90      -99.90      -99.90    
       -99.90      -99.90      -99.90      -99.90      -99.90      -99.90      -99.90      -99.90      -99.90      -99.90    
  15   -99.90      -99.90      -99.90      -99.90      -99.90      -99.90      -99.90      -99.90      -99.90      -99.90    
       -99.90      -99.90      -99.90      -99.90      -99.90      -99.90      -99.90      -99.90      -99.90      -99.90    
       -99.90      -99.90      -99.90      -99.90      -99.90      -99.90      -99.90      -99.90      -99.90      -99.90    
       -99.90      -99.90      -99.90      -99.90      -99.90      -99.90      -99.90      -99.90      -99.90      -99.90    
  16   -99.90      -99.90      -99.90      -99.90      -99.90      -99.90      -99.90      -99.90      -99.90      -99.90    
       -99.90      -99.90      -99.90      -99.90      -99.90      -99.90      -99.90      -99.90      -99.90      -99.90    
       -99.90      -99.90      -99.90      -99.90      -99.90      -99.90      -99.90      -99.90      -99.90      -99.90    
       -99.90      -99.90      -99.90      -99.90      -99.90      -99.90      -99.90      -99.90      -99.90      -99.90    
  17   -99.90      -99.90      -99.90      -99.90      -99.90      -99.90      -99.90      -99.90      -99.90      -99.90    
       -99.90      -99.90      -99.90      -99.90      -99.90      -99.90      -99.90      -99.90      -99.90      -99.90    
       -99.90      -99.90      -99.90      -99.90      -99.90      -99.90      -99.90      -99.90      -99.90      -99.90    
       -99.90      -99.90      -99.90      -99.90      -99.90      -99.90      -99.90      -99.90      -99.90      -99.90    
  18   -99.90      -99.90      -99.90      -99.90      -99.90      -99.90      -99.90      -99.90      -99.90      -99.90    
       -99.90      -99.90      -99.90      -99.90      -99.90      -99.90      -99.90      -99.90      -99.90      -99.90    
       -99.90      -99.90      -99.90      -99.90      -99.90      -99.90      -99.90      -99.90      -99.90      -99.90    
       -99.90      -99.90      -99.90      -99.90      -99.90      -99.90      -99.90      -99.90      -99.90      -99.90    
  19   -99.90      -99.90      -99.90      -99.90      -99.90      -99.90      -99.90      -99.90      -99.90      -99.90    
       -99.90      -99.90      -99.90      -99.90      -99.90      -99.90      -99.90      -99.90      -99.90      -99.90    
       -99.90      -99.90      -99.90      -99.90      -99.90      -99.90      -99.90      -99.90      -99.90      -99.90    
       -99.90      -99.90      -99.90      -99.90      -99.90      -99.90      -99.90      -99.90      -99.90      -99.90    
  20   -99.90      -99.90      -99.90      -99.90      -99.90      -99.90      -99.90      -99.90      -99.90      -99.90    
       -99.90      -99.90      -99.90      -99.90      -99.90      -99.90      -99.90      -99.90      -99.90      -99.90    
       -99.90      -99.90      -99.90      -99.90      -99.90      -99.90      -99.90      -99.90      -99.90      -99.90    
       -99.90      -99.90      -99.90      -99.90      -99.90      -99.90      -99.90      -99.90      -99.90      -99.90    
  21   -99.90      -99.90      -99.90      -99.90      -99.90      -99.90      -99.90      -99.90      -99.90      -99.90    
       -99.90      -99.90      -99.90      -99.90      -99.90      -99.90      -99.90      -99.90      -99.90      -99.90    
       -99.90      -99.90      -99.90      -99.90      -99.90      -99.90      -99.90      -99.90      -99.90      -99.90    
       -99.90      -99.90      -99.90      -99.90      -99.90      -99.90      -99.90      -99.90      -99.90      -99.90    
  22   -99.90      -99.90      -99.90      -99.90      -99.90      -99.90      -99.90      -99.90      -99.90      -99.90    
       -99.90      -99.90      -99.90      -99.90      -99.90      -99.90      -99.90      -99.90      -99.90      -99.90    
       -99.90      -99.90      -99.90      -99.90      -99.90      -99.90      -99.90      -99.90      -99.90      -99.90    
       -99.90      -99.90      -99.90      -99.90      -99.90      -99.90      -99.90      -99.90      -99.90      -99.90    
  23   -99.90      -99.90      -99.90      -99.90      -99.90      -99.90      -99.90      -99.90      -99.90      -99.90    
       -99.90      -99.90      -99.90      -99.90      -99.90      -99.90      -99.90      -99.90      -99.90      -99.90    
       -99.90      -99.90      -99.90      -99.90      -99.90      -99.90      -99.90      -99.90      -99.90      -99.90    
       -99.90      -99.90      -99.90      -99.90      -99.90      -99.90      -99.90      -99.90      -99.90      -99.90    
  24   -99.90      -99.90      -99.90      -99.90      -99.90      -99.90      -99.90      -99.90      -99.90      -99.90    
       -99.90      -99.90      -99.90      -99.90      -99.90      -99.90      -99.90      -99.90      -99.90      -99.90    
       -99.90      -99.90      -99.90      -99.90      -99.90      -99.90      -99.90      -99.90      -99.90      -99.90    
       -99.90      -99.90      -99.90      -99.90      -99.90      -99.90      -99.90      -99.90      -99.90      -99.90    
  25   -99.90      -99.90      -99.90      -99.90      -99.90      -99.90      -99.90      -99.90      -99.90      -99.90    
       -99.90      -99.90      -99.90      -99.90      -99.90      -99.90      -99.90      -99.90      -99.90      -99.90    
       -99.90      -99.90      -99.90      -99.90      -99.90      -99.90      -99.90      -99.90      -99.90      -99.90    
       -99.90      -99.90      -99.90      -99.90      -99.90      -99.90      -99.90      -99.90      -99.90      -99.90    
  26   -99.90      -99.90      -99.90      -99.90      -99.90      -99.90      -99.90      -99.90      -99.90      -99.90    
       -99.90      -99.90      -99.90      -99.90      -99.90      -99.90      -99.90      -99.90      -99.90      -99.90    
       -99.90      -99.90      -99.90      -99.90      -99.90      -99.90      -99.90      -99.90      -99.90      -99.90    
       -99.90      -99.90      -99.90      -99.90      -99.90      -99.90      -99.90      -99.90      -99.90      -99.90    
  27   -99.90      -99.90      -99.90      -99.90      -99.90      -99.90      -99.90      -99.90      -99.90      -99.90    
       -99.90      -99.90      -99.90      -99.90      -99.90      -99.90      -99.90      -99.90      -99.90      -99.90    
       -99.90      -99.90      -99.90      -99.90      -99.90      -99.90      -99.90      -99.90      -99.90      -99.90    
       -99.90      -99.90      -99.90      -99.90      -99.90      -99.90      -99.90      -99.90      -99.90      -99.90    
  28   -99.90      -99.90      -99.90      -99.90      -99.90      -99.90      -99.90      -99.90      -99.90      -99.90    
       -99.90      -99.90      -99.90      -99.90      -99.90      -99.90      -99.90      -99.90      -99.90      -99.90    
       -99.90      -99.90      -99.90      -99.90      -99.90      -99.90      -99.90      -99.90      -99.90      -99.90    
       -99.90      -99.90      -99.90      -99.90      -99.90      -99.90      -99.90      -99.90      -99.90      -99.90    
  29   -99.90      -99.90      -99.90      -99.90      -99.90      -99.90      -99.90      -99.90      -99.90      -99.90    
       -99.90      -99.90      -99.90      -99.90      -99.90      -99.90      -99.90      -99.90      -99.90      -99.90    
       -99.90      -99.90      -99.90      -99.90      -99.90      -99.90      -99.90      -99.90      -99.90      -99.90    
       -99.90      -99.90      -99.90      -99.90      -99.90      -99.90      -99.90      -99.90      -99.90      -99.90    
  30   -99.90      -99.90      -99.90      -99.90      -99.90      -99.90      -99.90      -99.90      -99.90      -99.90    
       -99.90      -99.90      -99.90      -99.90      -99.90      -99.90      -99.90      -99.90      -99.90      -99.90    
       -99.90      -99.90      -99.90      -99.90      -99.90      -99.90      -99.90      -99.90      -99.90      -99.90    
       -99.90      -99.90      -99.90      -99.90      -99.90      -99.90      -99.90      -99.90      -99.90      -99.90    
  31   -99.90      -99.90      -99.90      -99.90      -99.90      -99.90      -99.90      -99.90      -99.90      -99.90    
       -99.90      -99.90      -99.90      -99.90      -99.90      -99.90      -99.90      -99.90      -99.90      -99.90    
       -99.90      -99.90      -99.90      -99.90      -99.90      -99.90      -99.90      -99.90      -99.90      -99.90    
       -99.90      -99.90      -99.90      -99.90      -99.90      -99.90      -99.90      -99.90      -99.90      -99.90    
  32   -99.90      -99.90      -99.90      -99.90      -99.90      -99.90      -99.90      -99.90      -99.90      -99.90    
       -99.90      -99.90      -99.90      -99.90      -99.90      -99.90      -99.90      -99.90      -99.90      -99.90    
       -99.90      -99.90      -99.90      -99.90      -99.90      -99.90      -99.90      -99.90      -99.90      -99.90    
       -99.90      -99.90      -99.90      -99.90      -99.90      -99.90      -99.90      -99.90      -99.90      -99.90    
  33   -99.90      -99.90      -99.90      -99.90      -99.90      -99.90      -99.90      -99.90      -99.90      -99.90    
       -99.90      -99.90      -99.90      -99.90      -99.90      -99.90      -99.90      -99.90      -99.90      -99.90    
       -99.90      -99.90      -99.90      -99.90      -99.90      -99.90      -99.90      -99.90      -99.90      -99.90    
       -99.90      -99.90      -99.90      -99.90      -99.90      -99.90      -99.90      -99.90      -99.90      -99.90    
  34   -99.90      -99.90      -99.90      -99.90      -99.90      -99.90      -99.90      -99.90      -99.90      -99.90    
       -99.90      -99.90      -99.90      -99.90      -99.90      -99.90      -99.90      -99.90      -99.90      -99.90    
       -99.90      -99.90      -99.90      -99.90      -99.90      -99.90      -99.90      -99.90      -99.90      -99.90    
       -99.90      -99.90      -99.90      -99.90      -99.90      -99.90      -99.90      -99.90      -99.90      -99.90    
  35   -99.90      -99.90      -99.90      -99.90      -99.90      -99.90      -99.90      -99.90      -99.90      -99.90    
       -99.90      -99.90      -99.90      -99.90      -99.90      -99.90      -99.90      -99.90      -99.90      -99.90    
       -99.90      -99.90      -99.90      -99.90      -99.90      -99.90      -99.90      -99.90      -99.90      -99.90    
       -99.90      -99.90      -99.90      -99.90      -99.90      -99.90      -99.90      -99.90      -99.90      -99.90    
  36   -99.90      -99.90      -99.90      -99.90      -99.90      -99.90      -99.90      -99.90      -99.90      -99.90    
       -99.90      -99.90      -99.90      -99.90      -99.90      -99.90      -99.90      -99.90      -99.90      -99.90    
       -99.90      -99.90      -99.90      -99.90      -99.90      -99.90      -99.90      -99.90      -99.90      -99.90    
       -99.90      -99.90      -99.90      -99.90      -99.90      -99.90      -99.90      -99.90      -99.90      -99.90    
  37   -99.90      -99.90      -99.90      -99.90      -99.90      -99.90      -99.90      -99.90      -99.90      -99.90    
       -99.90      -99.90      -99.90      -99.90      -99.90      -99.90      -99.90      -99.90      -99.90      -99.90    
       -99.90      -99.90      -99.90      -99.90      -99.90      -99.90      -99.90      -99.90      -99.90      -99.90    
       -99.90      -99.90      -99.90      -99.90      -99.90      -99.90      -99.90      -99.90      -99.90      -99.90    
  38   -99.90      -99.90      -99.90      -99.90      -99.90      -99.90      -99.90      -99.90      -99.90      -99.90    
       -99.90      -99.90      -99.90      -99.90      -99.90      -99.90      -99.90      -99.90      -99.90      -99.90    
       -99.90      -99.90      -99.90      -99.90      -99.90      -99.90      -99.90      -99.90      -99.90      -99.90    
       -99.90      -99.90      -99.90      -99.90      -99.90      -99.90      -99.90      -99.90      -99.90      -99.90    
  39   -99.90      -99.90      -99.90      -99.90      -99.90      -99.90      -99.90      -99.90      -99.90      -99.90    
       -99.90      -99.90      -99.90      -99.90      -99.90      -99.90      -99.90      -99.90      -99.90      -99.90    
       -99.90      -99.90      -99.90      -99.90      -99.90      -99.90      -99.90      -99.90      -99.90      -99.90    
       -99.90      -99.90      -99.90      -99.90      -99.90      -99.90      -99.90      -99.90      -99.90      -99.90    
  40   -99.90      -99.90      -99.90      -99.90      -99.90      -99.90      -99.90      -99.90      -99.90      -99.90    
       -99.90      -99.90      -99.90      -99.90      -99.90      -99.90      -99.90      -99.90      -99.90      -99.90    
       -99.90      -99.90      -99.90      -99.90      -99.90      -99.90      -99.90      -99.90      -99.90      -99.90    
       -99.90      -99.90      -99.90      -99.90      -99.90      -99.90      -99.90      -99.90      -99.90      -99.90    
1
              HEAD IN LAYER 8 AT END OF TIME STEP 2 IN STRESS PERIOD 2
  ---------------------------------------------------------------------------

            1           2           3           4           5           6           7           8           9          10
           11          12          13          14          15          16          17          18          19          20
           21          22          23          24          25          26          27          28          29          30
           31          32          33          34          35          36          37          38          39          40
 ........................................................................................................................
   1    45.21       43.55       39.63       36.47       34.06       32.14       30.62      -99.90      -99.90      -99.90    
       -99.90      -99.90      -99.90      -99.90      -99.90      -99.90      -99.90      -99.90      -99.90      -99.90    
       -99.90      -99.90      -99.90      -99.90      -99.90      -99.90      -99.90      -99.90      -99.90      -99.90    
       -99.90      -99.90      -99.90      -99.90      -99.90      -99.90      -99.90      -99.90      -99.90      -99.90    
   2    43.55       42.15       38.54       35.76       33.59       31.83       30.41      -99.90      -99.90      -99.90    
       -99.90      -99.90      -99.90      -99.90      -99.90      -99.90      -99.90      -99.90      -99.90      -99.90    
       -99.90      -99.90      -99.90      -99.90      -99.90      -99.90      -99.90      -99.90      -99.90      -99.90    
       -99.90      -99.90      -99.90      -99.90      -99.90      -99.90      -99.90      -99.90      -99.90      -99.90    
   3    39.63       38.54       36.49       34.52       32.77       31.28       30.02      -99.90      -99.90      -99.90    
       -99.90      -99.90      -99.90      -99.90      -99.90      -99.90      -99.90      -99.90      -99.90      -99.90    
       -99.90      -99.90      -99.90      -99.90      -99.90      -99.90      -99.90      -99.90      -99.90      -99.90    
       -99.90      -99.90      -99.90      -99.90      -99.90      -99.90      -99.90      -99.90      -99.90      -99.90    
   4    36.47       35.76       34.52       33.13       31.79       30.58      -99.90      -99.90      -99.90      -99.90    
       -99.90      -99.90      -99.90      -99.90      -99.90      -99.90      -99.90      -99.90      -99.90      -99.90    
       -99.90      -99.90      -99.90      -99.90      -99.90      -99.90      -99.90      -99.90      -99.90      -99.90    
       -99.90      -99.90      -99.90      -99.90      -99.90      -99.90      -99.90      -99.90      -99.90      -99.90    
   5    34.06       33.59       32.77       31.79       30.78      -99.90      -99.90      -99.90      -99.90      -99.90    
       -99.90      -99.90      -99.90      -99.90      -99.90      -99.90      -99.90      -99.90      -99.90      -99.90    
       -99.90      -99.90      -99.90      -99.90      -99.90      -99.90      -99.90      -99.90      -99.90      -99.90    
       -99.90      -99.90      -99.90      -99.90      -99.90      -99.90      -99.90      -99.90      -99.90      -99.90    
   6    32.14       31.83       31.28       30.58      -99.90      -99.90      -99.90      -99.90      -99.90      -99.90    
       -99.90      -99.90      -99.90      -99.90      -99.90      -99.90      -99.90      -99.90      -99.90      -99.90    
       -99.90      -99.90      -99.90      -99.90      -99.90      -99.90      -99.90      -99.90      -99.90      -99.90    
       -99.90      -99.90      -99.90      -99.90      -99.90      -99.90      -99.90      -99.90      -99.90      -99.90    
   7    30.62       30.41       30.02      -99.90      -99.90      -99.90      -99.90      -99.90      -99.90      -99.90    
       -99.90      -99.90      -99.90      -99.90      -99.90      -99.90      -99.90      -99.90      -99.90      -99.90    
       -99.90      -99.90      -99.90      -99.90      -99.90      -99.90      -99.90      -99.90      -99.90      -99.90    
       -99.90      -99.90      -99.90      -99.90      -99.90      -99.90      -99.90      -99.90      -99.90      -99.90    
   8   -99.90      -99.90      -99.90      -99.90      -99.90      -99.90      -99.90      -99.90      -99.90      -99.90    
       -99.90      -99.90      -99.90      -99.90      -99.90      -99.90      -99.90      -99.90      -99.90      -99.90    
       -99.90      -99.90      -99.90      -99.90      -99.90      -99.90      -99.90      -99.90      -99.90      -99.90    
       -99.90      -99.90      -99.90      -99.90      -99.90      -99.90      -99.90      -99.90      -99.90      -99.90    
   9   -99.90      -99.90      -99.90      -99.90      -99.90      -99.90      -99.90      -99.90      -99.90      -99.90    
       -99.90      -99.90      -99.90      -99.90      -99.90      -99.90      -99.90      -99.90      -99.90      -99.90    
       -99.90      -99.90      -99.90      -99.90      -99.90      -99.90      -99.90      -99.90      -99.90      -99.90    
       -99.90      -99.90      -99.90      -99.90      -99.90      -99.90      -99.90      -99.90      -99.90      -99.90    
  10   -99.90      -99.90      -99.90      -99.90      -99.90      -99.90      -99.90      -99.90      -99.90      -99.90    
       -99.90      -99.90      -99.90      -99.90      -99.90      -99.90      -99.90      -99.90      -99.90      -99.90    
       -99.90      -99.90      -99.90      -99.90      -99.90      -99.90      -99.90      -99.90      -99.90      -99.90    
       -99.90      -99.90      -99.90      -99.90      -99.90      -99.90      -99.90      -99.90      -99.90      -99.90    
  11   -99.90      -99.90      -99.90      -99.90      -99.90      -99.90      -99.90      -99.90      -99.90      -99.90    
       -99.90      -99.90      -99.90      -99.90      -99.90      -99.90      -99.90      -99.90      -99.90      -99.90    
       -99.90      -99.90      -99.90      -99.90      -99.90      -99.90      -99.90      -99.90      -99.90      -99.90    
       -99.90      -99.90      -99.90      -99.90      -99.90      -99.90      -99.90      -99.90      -99.90      -99.90    
  12   -99.90      -99.90      -99.90      -99.90      -99.90      -99.90      -99.90      -99.90      -99.90      -99.90    
       -99.90      -99.90      -99.90      -99.90      -99.90      -99.90      -99.90      -99.90      -99.90      -99.90    
       -99.90      -99.90      -99.90      -99.90      -99.90      -99.90      -99.90      -99.90      -99.90      -99.90    
       -99.90      -99.90      -99.90      -99.90      -99.90      -99.90      -99.90      -99.90      -99.90      -99.90    
  13   -99.90      -99.90      -99.90      -99.90      -99.90      -99.90      -99.90      -99.90      -99.90      -99.90    
       -99.90      -99.90      -99.90      -99.90      -99.90      -99.90      -99.90      -99.90      -99.90      -99.90    
       -99.90      -99.90      -99.90      -99.90      -99.90      -99.90      -99.90      -99.90      -99.90      -99.90    
       -99.90      -99.90      -99.90      -99.90      -99.90      -99.90      -99.90      -99.90      -99.90      -99.90    
  14   -99.90      -99.90      -99.90      -99.90      -99.90      -99.90      -99.90      -99.90      -99.90      -99.90    
       -99.90      -99.90      -99.90      -99.90      -99.90      -99.90      -99.90      -99.90      -99.90      -99.90    
       -99.90      -99.90      -99.90      -99.90      -99.90      -99.90      -99.90      -99.90      -99.90      -99.90    
       -99.90      -99.90      -99.90      -99.90      -99.90      -99.90      -99.90      -99.90      -99.90      -99.90    
  15   -99.90      -99.90      -99.90      -99.90      -99.90      -99.90      -99.90      -99.90      -99.90      -99.90    
       -99.90      -99.90      -99.90      -99.90      -99.90      -99.90      -99.90      -99.90      -99.90      -99.90    
       -99.90      -99.90      -99.90      -99.90      -99.90      -99.90      -99.90      -99.90      -99.90      -99.90    
       -99.90      -99.90      -99.90      -99.90      -99.90      -99.90      -99.90      -99.90      -99.90      -99.90    
  16   -99.90      -99.90      -99.90      -99.90      -99.90      -99.90      -99.90      -99.90      -99.90      -99.90    
       -99.90      -99.90      -99.90      -99.90      -99.90      -99.90      -99.90      -99.90      -99.90      -99.90    
       -99.90      -99.90      -99.90      -99.90      -99.90      -99.90      -99.90      -99.90      -99.90      -99.90    
       -99.90      -99.90      -99.90      -99.90      -99.90      -99.90      -99.90      -99.90      -99.90      -99.90    
  17   -99.90      -99.90      -99.90      -99.90      -99.90      -99.90      -99.90      -99.90      -99.90      -99.90    
       -99.90      -99.90      -99.90      -99.90      -99.90      -99.90      -99.90      -99.90      -99.90      -99.90    
       -99.90      -99.90      -99.90      -99.90      -99.90      -99.90      -99.90      -99.90      -99.90      -99.90    
       -99.90      -99.90      -99.90      -99.90      -99.90      -99.90      -99.90      -99.90      -99.90      -99.90    
  18   -99.90      -99.90      -99.90      -99.90      -99.90      -99.90      -99.90      -99.90      -99.90      -99.90    
       -99.90      -99.90      -99.90      -99.90      -99.90      -99.90      -99.90      -99.90      -99.90      -99.90    
       -99.90      -99.90      -99.90      -99.90      -99.90      -99.90      -99.90      -99.90      -99.90      -99.90    
       -99.90      -99.90      -99.90      -99.90      -99.90      -99.90      -99.90      -99.90      -99.90      -99.90    
  19   -99.90      -99.90      -99.90      -99.90      -99.90      -99.90      -99.90      -99.90      -99.90      -99.90    
       -99.90      -99.90      -99.90      -99.90      -99.90      -99.90      -99.90      -99.90      -99.90      -99.90    
       -99.90      -99.90      -99.90      -99.90      -99.90      -99.90      -99.90      -99.90      -99.90      -99.90    
       -99.90      -99.90      -99.90      -99.90      -99.90      -99.90      -99.90      -99.90      -99.90      -99.90    
  20   -99.90      -99.90      -99.90      -99.90      -99.90      -99.90      -99.90      -99.90      -99.90      -99.90    
       -99.90      -99.90      -99.90      -99.90      -99.90      -99.90      -99.90      -99.90      -99.90      -99.90    
       -99.90      -99.90      -99.90      -99.90      -99.90      -99.90      -99.90      -99.90      -99.90      -99.90    
       -99.90      -99.90      -99.90      -99.90      -99.90      -99.90      -99.90      -99.90      -99.90      -99.90    
  21   -99.90      -99.90      -99.90      -99.90      -99.90      -99.90      -99.90      -99.90      -99.90      -99.90    
       -99.90      -99.90      -99.90      -99.90      -99.90      -99.90      -99.90      -99.90      -99.90      -99.90    
       -99.90      -99.90      -99.90      -99.90      -99.90      -99.90      -99.90      -99.90      -99.90      -99.90    
       -99.90      -99.90      -99.90      -99.90      -99.90      -99.90      -99.90      -99.90      -99.90      -99.90    
  22   -99.90      -99.90      -99.90      -99.90      -99.90      -99.90      -99.90      -99.90      -99.90      -99.90    
       -99.90      -99.90      -99.90      -99.90      -99.90      -99.90      -99.90      -99.90      -99.90      -99.90    
       -99.90      -99.90      -99.90      -99.90      -99.90      -99.90      -99.90      -99.90      -99.90      -99.90    
       -99.90      -99.90      -99.90      -99.90      -99.90      -99.90      -99.90      -99.90      -99.90      -99.90    
  23   -99.90      -99.90      -99.90      -99.90      -99.90      -99.90      -99.90      -99.90      -99.90      -99.90    
       -99.90      -99.90      -99.90      -99.90      -99.90      -99.90      -99.90      -99.90      -99.90      -99.90    
       -99.90      -99.90      -99.90      -99.90      -99.90      -99.90      -99.90      -99.90      -99.90      -99.90    
       -99.90      -99.90      -99.90      -99.90      -99.90      -99.90      -99.90      -99.90      -99.90      -99.90    
  24   -99.90      -99.90      -99.90      -99.90      -99.90      -99.90      -99.90      -99.90      -99.90      -99.90    
       -99.90      -99.90      -99.90      -99.90      -99.90      -99.90      -99.90      -99.90      -99.90      -99.90    
       -99.90      -99.90      -99.90      -99.90      -99.90      -99.90      -99.90      -99.90      -99.90      -99.90    
       -99.90      -99.90      -99.90      -99.90      -99.90      -99.90      -99.90      -99.90      -99.90      -99.90    
  25   -99.90      -99.90      -99.90      -99.90      -99.90      -99.90      -99.90      -99.90      -99.90      -99.90    
       -99.90      -99.90      -99.90      -99.90      -99.90      -99.90      -99.90      -99.90      -99.90      -99.90    
       -99.90      -99.90      -99.90      -99.90      -99.90      -99.90      -99.90      -99.90      -99.90      -99.90    
       -99.90      -99.90      -99.90      -99.90      -99.90      -99.90      -99.90      -99.90      -99.90      -99.90    
  26   -99.90      -99.90      -99.90      -99.90      -99.90      -99.90      -99.90      -99.90      -99.90      -99.90    
       -99.90      -99.90      -99.90      -99.90      -99.90      -99.90      -99.90      -99.90      -99.90      -99.90    
       -99.90      -99.90      -99.90      -99.90      -99.90      -99.90      -99.90      -99.90      -99.90      -99.90    
       -99.90      -99.90      -99.90      -99.90      -99.90      -99.90      -99.90      -99.90      -99.90      -99.90    
  27   -99.90      -99.90      -99.90      -99.90      -99.90      -99.90      -99.90      -99.90      -99.90      -99.90    
       -99.90      -99.90      -99.90      -99.90      -99.90      -99.90      -99.90      -99.90      -99.90      -99.90    
       -99.90      -99.90      -99.90      -99.90      -99.90      -99.90      -99.90      -99.90      -99.90      -99.90    
       -99.90      -99.90      -99.90      -99.90      -99.90      -99.90      -99.90      -99.90      -99.90      -99.90    
  28   -99.90      -99.90      -99.90      -99.90      -99.90      -99.90      -99.90      -99.90      -99.90      -99.90    
       -99.90      -99.90      -99.90      -99.90      -99.90      -99.90      -99.90      -99.90      -99.90      -99.90    
       -99.90      -99.90      -99.90      -99.90      -99.90      -99.90      -99.90      -99.90      -99.90      -99.90    
       -99.90      -99.90      -99.90      -99.90      -99.90      -99.90      -99.90      -99.90      -99.90      -99.90    
  29   -99.90      -99.90      -99.90      -99.90      -99.90      -99.90      -99.90      -99.90      -99.90      -99.90    
       -99.90      -99.90      -99.90      -99.90      -99.90      -99.90      -99.90      -99.90      -99.90      -99.90    
       -99.90      -99.90      -99.90      -99.90      -99.90      -99.90      -99.90      -99.90      -99.90      -99.90    
       -99.90      -99.90      -99.90      -99.90      -99.90      -99.90      -99.90      -99.90      -99.90      -99.90    
  30   -99.90      -99.90      -99.90      -99.90      -99.90      -99.90      -99.90      -99.90      -99.90      -99.90    
       -99.90      -99.90      -99.90      -99.90      -99.90      -99.90      -99.90      -99.90      -99.90      -99.90    
       -99.90      -99.90      -99.90      -99.90      -99.90      -99.90      -99.90      -99.90      -99.90      -99.90    
       -99.90      -99.90      -99.90      -99.90      -99.90      -99.90      -99.90      -99.90      -99.90      -99.90    
  31   -99.90      -99.90      -99.90      -99.90      -99.90      -99.90      -99.90      -99.90      -99.90      -99.90    
       -99.90      -99.90      -99.90      -99.90      -99.90      -99.90      -99.90      -99.90      -99.90      -99.90    
       -99.90      -99.90      -99.90      -99.90      -99.90      -99.90      -99.90      -99.90      -99.90      -99.90    
       -99.90      -99.90      -99.90      -99.90      -99.90      -99.90      -99.90      -99.90      -99.90      -99.90    
  32   -99.90      -99.90      -99.90      -99.90      -99.90      -99.90      -99.90      -99.90      -99.90      -99.90    
       -99.90      -99.90      -99.90      -99.90      -99.90      -99.90      -99.90      -99.90      -99.90      -99.90    
       -99.90      -99.90      -99.90      -99.90      -99.90      -99.90      -99.90      -99.90      -99.90      -99.90    
       -99.90      -99.90      -99.90      -99.90      -99.90      -99.90      -99.90      -99.90      -99.90      -99.90    
  33   -99.90      -99.90      -99.90      -99.90      -99.90      -99.90      -99.90      -99.90      -99.90      -99.90    
       -99.90      -99.90      -99.90      -99.90      -99.90      -99.90      -99.90      -99.90      -99.90      -99.90    
       -99.90      -99.90      -99.90      -99.90      -99.90      -99.90      -99.90      -99.90      -99.90      -99.90    
       -99.90      -99.90      -99.90      -99.90      -99.90      -99.90      -99.90      -99.90      -99.90      -99.90    
  34   -99.90      -99.90      -99.90      -99.90      -99.90      -99.90      -99.90      -99.90      -99.90      -99.90    
       -99.90      -99.90      -99.90      -99.90      -99.90      -99.90      -99.90      -99.90      -99.90      -99.90    
       -99.90      -99.90      -99.90      -99.90      -99.90      -99.90      -99.90      -99.90      -99.90      -99.90    
       -99.90      -99.90      -99.90      -99.90      -99.90      -99.90      -99.90      -99.90      -99.90      -99.90    
  35   -99.90      -99.90      -99.90      -99.90      -99.90      -99.90      -99.90      -99.90      -99.90      -99.90    
       -99.90      -99.90      -99.90      -99.90      -99.90      -99.90      -99.90      -99.90      -99.90      -99.90    
       -99.90      -99.90      -99.90      -99.90      -99.90      -99.90      -99.90      -99.90      -99.90      -99.90    
       -99.90      -99.90      -99.90      -99.90      -99.90      -99.90      -99.90      -99.90      -99.90      -99.90    
  36   -99.90      -99.90      -99.90      -99.90      -99.90      -99.90      -99.90      -99.90      -99.90      -99.90    
       -99.90      -99.90      -99.90      -99.90      -99.90      -99.90      -99.90      -99.90      -99.90      -99.90    
       -99.90      -99.90      -99.90      -99.90      -99.90      -99.90      -99.90      -99.90      -99.90      -99.90    
       -99.90      -99.90      -99.90      -99.90      -99.90      -99.90      -99.90      -99.90      -99.90      -99.90    
  37   -99.90      -99.90      -99.90      -99.90      -99.90      -99.90      -99.90      -99.90      -99.90      -99.90    
       -99.90      -99.90      -99.90      -99.90      -99.90      -99.90      -99.90      -99.90      -99.90      -99.90    
       -99.90      -99.90      -99.90      -99.90      -99.90      -99.90      -99.90      -99.90      -99.90      -99.90    
       -99.90      -99.90      -99.90      -99.90      -99.90      -99.90      -99.90      -99.90      -99.90      -99.90    
  38   -99.90      -99.90      -99.90      -99.90      -99.90      -99.90      -99.90      -99.90      -99.90      -99.90    
       -99.90      -99.90      -99.90      -99.90      -99.90      -99.90      -99.90      -99.90      -99.90      -99.90    
       -99.90      -99.90      -99.90      -99.90      -99.90      -99.90      -99.90      -99.90      -99.90      -99.90    
       -99.90      -99.90      -99.90      -99.90      -99.90      -99.90      -99.90      -99.90      -99.90      -99.90    
  39   -99.90      -99.90      -99.90      -99.90      -99.90      -99.90      -99.90      -99.90      -99.90      -99.90    
       -99.90      -99.90      -99.90      -99.90      -99.90      -99.90      -99.90      -99.90      -99.90      -99.90    
       -99.90      -99.90      -99.90      -99.90      -99.90      -99.90      -99.90      -99.90      -99.90      -99.90    
       -99.90      -99.90      -99.90      -99.90      -99.90      -99.90      -99.90      -99.90      -99.90      -99.90    
  40   -99.90      -99.90      -99.90      -99.90      -99.90      -99.90      -99.90      -99.90      -99.90      -99.90    
       -99.90      -99.90      -99.90      -99.90      -99.90      -99.90      -99.90      -99.90      -99.90      -99.90    
       -99.90      -99.90      -99.90      -99.90      -99.90      -99.90      -99.90      -99.90      -99.90      -99.90    
       -99.90      -99.90      -99.90      -99.90      -99.90      -99.90      -99.90      -99.90      -99.90      -99.90    
1
              HEAD IN LAYER 9 AT END OF TIME STEP 2 IN STRESS PERIOD 2
  ---------------------------------------------------------------------------

            1           2           3           4           5           6           7           8           9          10
           11          12          13          14          15          16          17          18          19          20
           21          22          23          24          25          26          27          28          29          30
           31          32          33          34          35          36          37          38          39          40
 ........................................................................................................................
   1    44.62       43.00       39.47       36.44       34.06       32.15       30.62       29.39       28.41       27.63    
        27.02       26.54       26.18       25.89       25.67       25.51       25.38       25.29       25.22       25.16    
        25.12       25.09       25.07       25.05       25.04       25.03       25.02       25.02       25.01       25.01    
        25.01       25.00       25.00       25.00      -99.90      -99.90      -99.90      -99.90      -99.90      -99.90    
   2    43.00       41.62       38.42       35.74       33.60       31.84       30.40       29.24       28.30       27.56    
        26.97       26.51       26.15       25.87       25.66       25.50       25.38       25.28       25.21       25.16    
        25.12       25.09       25.07       25.05       25.04       25.03       25.02       25.02       25.01       25.01    
        25.01       25.00       25.00       25.00      -99.90      -99.90      -99.90      -99.90      -99.90      -99.90    
   3    39.47       38.42       36.46       34.52       32.78       31.28       30.01       28.96       28.11       27.42    
        26.87       26.44       26.10       25.84       25.64       25.48       25.36       25.27       25.21       25.16    
        25.12       25.09       25.07       25.05       25.04       25.03       25.02       25.02       25.01       25.01    
        25.01       25.00       25.00       25.00      -99.90      -99.90      -99.90      -99.90      -99.90      -99.90    
   4    36.44       35.74       34.52       33.14       31.80       30.57       29.50       28.60       27.84       27.23    
        26.73       26.34       26.03       25.79       25.60       25.46       25.35       25.26       25.20       25.15    
        25.11       25.08       25.06       25.05       25.04       25.03       25.02       25.01       25.01       25.01    
        25.01       25.00       25.00       25.00      -99.90      -99.90      -99.90      -99.90      -99.90      -99.90    
   5    34.06       33.60       32.78       31.80       30.78       29.81       28.94       28.18       27.54       27.00    
        26.57       26.22       25.94       25.73       25.56       25.42       25.32       25.24       25.19       25.14    
        25.11       25.08       25.06       25.05       25.03       25.03       25.02       25.01       25.01       25.01    
        25.01       25.00       25.00       25.00      -99.90      -99.90      -99.90      -99.90      -99.90      -99.90    
   6    32.15       31.84       31.28       30.57       29.81       29.06       28.37       27.75       27.21       26.76    
        26.39       26.09       25.85       25.66       25.51       25.39       25.30       25.23       25.17       25.13    
        25.10       25.07       25.06       25.04       25.03       25.02       25.02       25.01       25.01       25.01    
        25.01       25.00       25.00       25.00      -99.90      -99.90      -99.90      -99.90      -99.90      -99.90    
   7    30.62       30.40       30.01       29.50       28.94       28.37       27.82       27.33       26.90       26.53    
        26.21       25.96       25.75       25.58       25.45       25.35       25.27       25.21       25.16       25.12    
        25.09       25.07       25.05       25.04       25.03       25.02       25.02       25.01       25.01       25.01    
        25.01       25.00       25.00       25.00      -99.90      -99.90      -99.90      -99.90      -99.90      -99.90    
   8    29.39       29.24       28.96       28.60       28.18       27.75       27.33       26.94       26.60       26.30    
        26.04       25.83       25.65       25.51       25.40       25.31       25.24       25.18       25.14       25.11    
        25.08       25.06       25.05       25.04       25.03       25.02       25.02       25.01       25.01       25.01    
        25.00       25.00       25.00       25.00      -99.90      -99.90      -99.90      -99.90      -99.90      -99.90    
   9    28.41       28.30       28.11       27.84       27.54       27.21       26.90       26.60       26.32       26.09    
        25.88       25.71       25.56       25.44       25.35       25.27       25.21       25.16       25.13       25.10    
        25.07       25.06       25.04       25.03       25.02       25.02       25.01       25.01       25.01       25.01    
        25.00       25.00       25.00      -99.90      -99.90      -99.90      -99.90      -99.90      -99.90      -99.90    
  10    27.63       27.56       27.42       27.23       27.00       26.76       26.53       26.30       26.09       25.90    
        25.73       25.59       25.48       25.38       25.30       25.23       25.18       25.14       25.11       25.09    
        25.07       25.05       25.04       25.03       25.02       25.02       25.01       25.01       25.01       25.01    
        25.00       25.00       25.00      -99.90      -99.90      -99.90      -99.90      -99.90      -99.90      -99.90    
  11    27.02       26.97       26.87       26.73       26.57       26.39       26.21       26.04       25.88       25.73    
        25.60       25.49       25.40       25.32       25.25       25.20       25.16       25.12       25.10       25.07    
        25.06       25.04       25.03       25.03       25.02       25.02       25.01       25.01       25.01       25.01    
        25.00       25.00       25.00      -99.90      -99.90      -99.90      -99.90      -99.90      -99.90      -99.90    
  12    26.54       26.51       26.44       26.34       26.22       26.09       25.96       25.83       25.71       25.59    
        25.49       25.40       25.33       25.27       25.21       25.17       25.13       25.11       25.08       25.06    
        25.05       25.04       25.03       25.02       25.02       25.01       25.01       25.01       25.01       25.00    
        25.00       25.00      -99.90      -99.90      -99.90      -99.90      -99.90      -99.90      -99.90      -99.90    
  13    26.18       26.15       26.10       26.03       25.94       25.85       25.75       25.65       25.56       25.48    
        25.40       25.33       25.27       25.22       25.18       25.14       25.11       25.09       25.07       25.06    
        25.04       25.03       25.03       25.02       25.02       25.01       25.01       25.01       25.01       25.00    
        25.00       25.00      -99.90      -99.90      -99.90      -99.90      -99.90      -99.90      -99.90      -99.90    
  14    25.89       25.87       25.84       25.79       25.73       25.66       25.58       25.51       25.44       25.38    
        25.32       25.27       25.22       25.18       25.15       25.12       25.09       25.08       25.06       25.05    
        25.04       25.03       25.02       25.02       25.01       25.01       25.01       25.01       25.00       25.00    
        25.00       25.00      -99.90      -99.90      -99.90      -99.90      -99.90      -99.90      -99.90      -99.90    
  15    25.67       25.66       25.64       25.60       25.56       25.51       25.45       25.40       25.35       25.30    
        25.25       25.21       25.18       25.15       25.12       25.10       25.08       25.06       25.05       25.04    
        25.03       25.02       25.02       25.02       25.01       25.01       25.01       25.01       25.00       25.00    
        25.00      -99.90      -99.90      -99.90      -99.90      -99.90      -99.90      -99.90      -99.90      -99.90    
  16    25.51       25.50       25.48       25.46       25.42       25.39       25.35       25.31       25.27       25.23    
        25.20       25.17       25.14       25.12       25.10       25.08       25.06       25.05       25.04       25.03    
        25.03       25.02       25.02       25.01       25.01       25.01       25.01       25.00       25.00       25.00    
        25.00      -99.90      -99.90      -99.90      -99.90      -99.90      -99.90      -99.90      -99.90      -99.90    
  17    25.38       25.38       25.36       25.35       25.32       25.30       25.27       25.24       25.21       25.18    
        25.16       25.13       25.11       25.09       25.08       25.06       25.05       25.04       25.03       25.03    
        25.02       25.02       25.01       25.01       25.01       25.01       25.01       25.00       25.00       25.00    
       -99.90      -99.90      -99.90      -99.90      -99.90      -99.90      -99.90      -99.90      -99.90      -99.90    
  18    25.29       25.28       25.27       25.26       25.24       25.23       25.21       25.18       25.16       25.14    
        25.12       25.11       25.09       25.08       25.06       25.05       25.04       25.03       25.03       25.02    
        25.02       25.01       25.01       25.01       25.01       25.01       25.00       25.00       25.00       25.00    
       -99.90      -99.90      -99.90      -99.90      -99.90      -99.90      -99.90      -99.90      -99.90      -99.90    
  19    25.22       25.21       25.21       25.20       25.19       25.17       25.16       25.14       25.13       25.11    
        25.10       25.08       25.07       25.06       25.05       25.04       25.03       25.03       25.02       25.02    
        25.02       25.01       25.01       25.01       25.01       25.00       25.00       25.00       25.00      -99.90    
       -99.90      -99.90      -99.90      -99.90      -99.90      -99.90      -99.90      -99.90      -99.90      -99.90    
  20    25.16       25.16       25.16       25.15       25.14       25.13       25.12       25.11       25.10       25.09    
        25.07       25.06       25.06       25.05       25.04       25.03       25.03       25.02       25.02       25.02    
        25.01       25.01       25.01       25.01       25.01       25.00       25.00       25.00      -99.90      -99.90    
       -99.90      -99.90      -99.90      -99.90      -99.90      -99.90      -99.90      -99.90      -99.90      -99.90    
  21    25.12       25.12       25.12       25.11       25.11       25.10       25.09       25.08       25.07       25.07    
        25.06       25.05       25.04       25.04       25.03       25.03       25.02       25.02       25.02       25.01    
        25.01       25.01       25.01       25.01       25.00       25.00       25.00       25.00      -99.90      -99.90    
       -99.90      -99.90      -99.90      -99.90      -99.90      -99.90      -99.90      -99.90      -99.90      -99.90    
  22    25.09       25.09       25.09       25.08       25.08       25.07       25.07       25.06       25.06       25.05    
        25.04       25.04       25.03       25.03       25.02       25.02       25.02       25.01       25.01       25.01    
        25.01       25.01       25.01       25.00       25.00       25.00       25.00      -99.90      -99.90      -99.90    
       -99.90      -99.90      -99.90      -99.90      -99.90      -99.90      -99.90      -99.90      -99.90      -99.90    
  23    25.07       25.07       25.07       25.06       25.06       25.06       25.05       25.05       25.04       25.04    
        25.03       25.03       25.03       25.02       25.02       25.02       25.01       25.01       25.01       25.01    
        25.01       25.01       25.00       25.00       25.00       25.00      -99.90      -99.90      -99.90      -99.90    
       -99.90      -99.90      -99.90      -99.90      -99.90      -99.90      -99.90      -99.90      -99.90      -99.90    
  24    25.05       25.05       25.05       25.05       25.05       25.04       25.04       25.04       25.03       25.03    
        25.03       25.02       25.02       25.02       25.02       25.01       25.01       25.01       25.01       25.01    
        25.01       25.00       25.00       25.00       25.00      -99.90      -99.90      -99.90      -99.90      -99.90    
       -99.90      -99.90      -99.90      -99.90      -99.90      -99.90      -99.90      -99.90      -99.90      -99.90    
  25    25.04       25.04       25.04       25.04       25.03       25.03       25.03       25.03       25.02       25.02    
        25.02       25.02       25.02       25.01       25.01       25.01       25.01       25.01       25.01       25.01    
        25.00       25.00       25.00       25.00      -99.90      -99.90      -99.90      -99.90      -99.90      -99.90    
       -99.90      -99.90      -99.90      -99.90      -99.90      -99.90      -99.90      -99.90      -99.90      -99.90    
  26    25.03       25.03       25.03       25.03       25.03       25.02       25.02       25.02       25.02       25.02    
        25.02       25.01       25.01       25.01       25.01       25.01       25.01       25.01       25.00       25.00    
        25.00       25.00       25.00      -99.90      -99.90      -99.90      -99.90      -99.90      -99.90      -99.90    
       -99.90      -99.90      -99.90      -99.90      -99.90      -99.90      -99.90      -99.90      -99.90      -99.90    
  27    25.02       25.02       25.02       25.02       25.02       25.02       25.02       25.02       25.01       25.01    
        25.01       25.01       25.01       25.01       25.01       25.01       25.01       25.00       25.00       25.00    
        25.00       25.00      -99.90      -99.90      -99.90      -99.90      -99.90      -99.90      -99.90      -99.90    
       -99.90      -99.90      -99.90      -99.90      -99.90      -99.90      -99.90      -99.90      -99.90      -99.90    
  28    25.02       25.02       25.02       25.01       25.01       25.01       25.01       25.01       25.01       25.01    
        25.01       25.01       25.01       25.01       25.01       25.00       25.00       25.00       25.00       25.00    
        25.00      -99.90      -99.90      -99.90      -99.90      -99.90      -99.90      -99.90      -99.90      -99.90    
       -99.90      -99.90      -99.90      -99.90      -99.90      -99.90      -99.90      -99.90      -99.90      -99.90    
  29    25.01       25.01       25.01       25.01       25.01       25.01       25.01       25.01       25.01       25.01    
        25.01       25.01       25.01       25.00       25.00       25.00       25.00       25.00       25.00      -99.90    
       -99.90      -99.90      -99.90      -99.90      -99.90      -99.90      -99.90      -99.90      -99.90      -99.90    
       -99.90      -99.90      -99.90      -99.90      -99.90      -99.90      -99.90      -99.90      -99.90      -99.90    
  30    25.01       25.01       25.01       25.01       25.01       25.01       25.01       25.01       25.01       25.01    
        25.01       25.00       25.00       25.00       25.00       25.00       25.00       25.00      -99.90      -99.90    
       -99.90      -99.90      -99.90      -99.90      -99.90      -99.90      -99.90      -99.90      -99.90      -99.90    
       -99.90      -99.90      -99.90      -99.90      -99.90      -99.90      -99.90      -99.90      -99.90      -99.90    
  31    25.01       25.01       25.01       25.01       25.01       25.01       25.01       25.00       25.00       25.00    
        25.00       25.00       25.00       25.00       25.00       25.00      -99.90      -99.90      -99.90      -99.90    
       -99.90      -99.90      -99.90      -99.90      -99.90      -99.90      -99.90      -99.90      -99.90      -99.90    
       -99.90      -99.90      -99.90      -99.90      -99.90      -99.90      -99.90      -99.90      -99.90      -99.90    
  32    25.00       25.00       25.00       25.00       25.00       25.00       25.00       25.00       25.00       25.00    
        25.00       25.00       25.00       25.00      -99.90      -99.90      -99.90      -99.90      -99.90      -99.90    
       -99.90      -99.90      -99.90      -99.90      -99.90      -99.90      -99.90      -99.90      -99.90      -99.90    
       -99.90      -99.90      -99.90      -99.90      -99.90      -99.90      -99.90      -99.90      -99.90      -99.90    
  33    25.00       25.00       25.00       25.00       25.00       25.00       25.00       25.00       25.00       25.00    
        25.00      -99.90      -99.90      -99.90      -99.90      -99.90      -99.90      -99.90      -99.90      -99.90    
       -99.90      -99.90      -99.90      -99.90      -99.90      -99.90      -99.90      -99.90      -99.90      -99.90    
       -99.90      -99.90      -99.90      -99.90      -99.90      -99.90      -99.90      -99.90      -99.90      -99.90    
  34    25.00       25.00       25.00       25.00       25.00       25.00       25.00       25.00      -99.90      -99.90    
       -99.90      -99.90      -99.90      -99.90      -99.90      -99.90      -99.90      -99.90      -99.90      -99.90    
       -99.90      -99.90      -99.90      -99.90      -99.90      -99.90      -99.90      -99.90      -99.90      -99.90    
       -99.90      -99.90      -99.90      -99.90      -99.90      -99.90      -99.90      -99.90      -99.90      -99.90    
  35   -99.90      -99.90      -99.90      -99.90      -99.90      -99.90      -99.90      -99.90      -99.90      -99.90    
       -99.90      -99.90      -99.90      -99.90      -99.90      -99.90      -99.90      -99.90      -99.90      -99.90    
       -99.90      -99.90      -99.90      -99.90      -99.90      -99.90      -99.90      -99.90      -99.90      -99.90    
       -99.90      -99.90      -99.90      -99.90      -99.90      -99.90      -99.90      -99.90      -99.90      -99.90    
  36   -99.90      -99.90      -99.90      -99.90      -99.90      -99.90      -99.90      -99.90      -99.90      -99.90    
       -99.90      -99.90      -99.90      -99.90      -99.90      -99.90      -99.90      -99.90      -99.90      -99.90    
       -99.90      -99.90      -99.90      -99.90      -99.90      -99.90      -99.90      -99.90      -99.90      -99.90    
       -99.90      -99.90      -99.90      -99.90      -99.90      -99.90      -99.90      -99.90      -99.90      -99.90    
  37   -99.90      -99.90      -99.90      -99.90      -99.90      -99.90      -99.90      -99.90      -99.90      -99.90    
       -99.90      -99.90      -99.90      -99.90      -99.90      -99.90      -99.90      -99.90      -99.90      -99.90    
       -99.90      -99.90      -99.90      -99.90      -99.90      -99.90      -99.90      -99.90      -99.90      -99.90    
       -99.90      -99.90      -99.90      -99.90      -99.90      -99.90      -99.90      -99.90      -99.90      -99.90    
  38   -99.90      -99.90      -99.90      -99.90      -99.90      -99.90      -99.90      -99.90      -99.90      -99.90    
       -99.90      -99.90      -99.90      -99.90      -99.90      -99.90      -99.90      -99.90      -99.90      -99.90    
       -99.90      -99.90      -99.90      -99.90      -99.90      -99.90      -99.90      -99.90      -99.90      -99.90    
       -99.90      -99.90      -99.90      -99.90      -99.90      -99.90      -99.90      -99.90      -99.90      -99.90    
  39   -99.90      -99.90      -99.90      -99.90      -99.90      -99.90      -99.90      -99.90      -99.90      -99.90    
       -99.90      -99.90      -99.90      -99.90      -99.90      -99.90      -99.90      -99.90      -99.90      -99.90    
       -99.90      -99.90      -99.90      -99.90      -99.90      -99.90      -99.90      -99.90      -99.90      -99.90    
       -99.90      -99.90      -99.90      -99.90      -99.90      -99.90      -99.90      -99.90      -99.90      -99.90    
  40   -99.90      -99.90      -99.90      -99.90      -99.90      -99.90      -99.90      -99.90      -99.90      -99.90    
       -99.90      -99.90      -99.90      -99.90      -99.90      -99.90      -99.90      -99.90      -99.90      -99.90    
       -99.90      -99.90      -99.90      -99.90      -99.90      -99.90      -99.90      -99.90      -99.90      -99.90    
       -99.90      -99.90      -99.90      -99.90      -99.90      -99.90      -99.90      -99.90      -99.90      -99.90    
1
              HEAD IN LAYER 10 AT END OF TIME STEP 2 IN STRESS PERIOD 2
  ---------------------------------------------------------------------------

            1           2           3           4           5           6           7           8           9          10
           11          12          13          14          15          16          17          18          19          20
           21          22          23          24          25          26          27          28          29          30
           31          32          33          34          35          36          37          38          39          40
 ........................................................................................................................
   1    44.14       42.57       39.33       36.41       34.05       32.16       30.63       29.40       28.42       27.64    
        27.03       26.55       26.18       25.90       25.68       25.51       25.39       25.29       25.22       25.16    
        25.12       25.09       25.07       25.05       25.04       25.03       25.02       25.02       25.01       25.01    
        25.01       25.00       25.00       25.00       25.00       25.00       25.00       25.00       25.00       25.00    
   2    42.57       41.21       38.31       35.72       33.60       31.85       30.42       29.25       28.32       27.57    
        26.98       26.52       26.16       25.88       25.67       25.50       25.38       25.29       25.22       25.16    
        25.12       25.09       25.07       25.05       25.04       25.03       25.02       25.02       25.01       25.01    
        25.01       25.00       25.00       25.00       25.00       25.00       25.00       25.00       25.00       25.00    
   3    39.33       38.31       36.43       34.52       32.79       31.29       30.03       28.98       28.12       27.43    
        26.88       26.45       26.11       25.84       25.64       25.49       25.37       25.28       25.21       25.16    
        25.12       25.09       25.07       25.05       25.04       25.03       25.02       25.02       25.01       25.01    
        25.01       25.00       25.00       25.00       25.00       25.00       25.00       25.00       25.00       25.00    
   4    36.41       35.72       34.52       33.15       31.81       30.59       29.52       28.61       27.86       27.24    
        26.74       26.35       26.04       25.79       25.61       25.46       25.35       25.26       25.20       25.15    
        25.11       25.09       25.06       25.05       25.04       25.03       25.02       25.02       25.01       25.01    
        25.01       25.00       25.00       25.00       25.00       25.00       25.00       25.00       25.00       25.00    
   5    34.05       33.60       32.79       31.81       30.79       29.83       28.96       28.20       27.55       27.02    
        26.58       26.23       25.95       25.73       25.56       25.43       25.33       25.25       25.19       25.14    
        25.11       25.08       25.06       25.05       25.03       25.03       25.02       25.01       25.01       25.01    
        25.01       25.00       25.00       25.00       25.00       25.00       25.00       25.00       25.00       25.00    
   6    32.16       31.85       31.29       30.59       29.83       29.08       28.38       27.76       27.23       26.78    
        26.40       26.10       25.86       25.66       25.51       25.39       25.30       25.23       25.17       25.13    
        25.10       25.08       25.06       25.04       25.03       25.02       25.02       25.01       25.01       25.01    
        25.01       25.00       25.00       25.00       25.00       25.00       25.00       25.00       25.00       25.00    
   7    30.63       30.42       30.03       29.52       28.96       28.38       27.84       27.34       26.91       26.54    
        26.22       25.97       25.76       25.59       25.46       25.35       25.27       25.21       25.16       25.12    
        25.09       25.07       25.05       25.04       25.03       25.02       25.02       25.01       25.01       25.01    
        25.01       25.00       25.00       25.00       25.00       25.00       25.00       25.00       25.00       25.00    
   8    29.40       29.25       28.98       28.61       28.20       27.76       27.34       26.96       26.61       26.31    
        26.05       25.84       25.66       25.52       25.40       25.31       25.24       25.19       25.14       25.11    
        25.08       25.06       25.05       25.04       25.03       25.02       25.02       25.01       25.01       25.01    
        25.01       25.00       25.00       25.00       25.00       25.00       25.00       25.00       25.00       25.00    
   9    28.42       28.32       28.12       27.86       27.55       27.23       26.91       26.61       26.33       26.09    
        25.89       25.71       25.57       25.45       25.35       25.27       25.21       25.17       25.13       25.10    
        25.07       25.06       25.04       25.03       25.03       25.02       25.01       25.01       25.01       25.01    
        25.00       25.00       25.00       25.00       25.00       25.00       25.00       25.00       25.00       25.00    
  10    27.64       27.57       27.43       27.24       27.02       26.78       26.54       26.31       26.09       25.90    
        25.74       25.60       25.48       25.38       25.30       25.24       25.19       25.14       25.11       25.09    
        25.07       25.05       25.04       25.03       25.02       25.02       25.01       25.01       25.01       25.01    
        25.00       25.00       25.00       25.00       25.00       25.00       25.00       25.00       25.00       25.00    
  11    27.03       26.98       26.88       26.74       26.58       26.40       26.22       26.05       25.89       25.74    
        25.61       25.50       25.40       25.32       25.26       25.20       25.16       25.13       25.10       25.08    
        25.06       25.05       25.03       25.03       25.02       25.02       25.01       25.01       25.01       25.01    
        25.00       25.00       25.00       25.00       25.00       25.00       25.00       25.00       25.00       25.00    
  12    26.55       26.52       26.45       26.35       26.23       26.10       25.97       25.84       25.71       25.60    
        25.50       25.41       25.33       25.27       25.22       25.17       25.14       25.11       25.08       25.07    
        25.05       25.04       25.03       25.02       25.02       25.01       25.01       25.01       25.01       25.00    
        25.00       25.00       25.00       25.00       25.00       25.00       25.00       25.00       25.00       25.00    
  13    26.18       26.16       26.11       26.04       25.95       25.86       25.76       25.66       25.57       25.48    
        25.40       25.33       25.27       25.22       25.18       25.14       25.11       25.09       25.07       25.06    
        25.04       25.03       25.03       25.02       25.02       25.01       25.01       25.01       25.01       25.00    
        25.00       25.00       25.00       25.00       25.00       25.00       25.00       25.00       25.00       25.00    
  14    25.90       25.88       25.84       25.79       25.73       25.66       25.59       25.52       25.45       25.38    
        25.32       25.27       25.22       25.18       25.15       25.12       25.10       25.08       25.06       25.05    
        25.04       25.03       25.02       25.02       25.01       25.01       25.01       25.01       25.00       25.00    
        25.00       25.00       25.00       25.00       25.00       25.00       25.00       25.00       25.00       25.00    
  15    25.68       25.67       25.64       25.61       25.56       25.51       25.46       25.40       25.35       25.30    
        25.26       25.22       25.18       25.15       25.12       25.10       25.08       25.06       25.05       25.04    
        25.03       25.02       25.02       25.02       25.01       25.01       25.01       25.01       25.00       25.00    
        25.00       25.00       25.00       25.00       25.00       25.00       25.00       25.00       25.00       25.00    
  16    25.51       25.50       25.49       25.46       25.43       25.39       25.35       25.31       25.27       25.24    
        25.20       25.17       25.14       25.12       25.10       25.08       25.07       25.05       25.04       25.03    
        25.03       25.02       25.02       25.01       25.01       25.01       25.01       25.00       25.00       25.00    
        25.00       25.00       25.00       25.00       25.00       25.00       25.00       25.00       25.00       25.00    
  17    25.39       25.38       25.37       25.35       25.33       25.30       25.27       25.24       25.21       25.19    
        25.16       25.14       25.11       25.10       25.08       25.07       25.05       25.04       25.03       25.03    
        25.02       25.02       25.01       25.01       25.01       25.01       25.01       25.00       25.00       25.00    
        25.00       25.00       25.00       25.00       25.00       25.00       25.00       25.00       25.00       25.00    
  18    25.29       25.29       25.28       25.26       25.25       25.23       25.21       25.19       25.17       25.14    
        25.13       25.11       25.09       25.08       25.06       25.05       25.04       25.04       25.03       25.02    
        25.02       25.01       25.01       25.01       25.01       25.01       25.00       25.00       25.00       25.00    
        25.00       25.00       25.00       25.00       25.00       25.00       25.00       25.00       25.00       25.00    
  19    25.22       25.22       25.21       25.20       25.19       25.17       25.16       25.14       25.13       25.11    
        25.10       25.08       25.07       25.06       25.05       25.04       25.03       25.03       25.02       25.02    
        25.02       25.01       25.01       25.01       25.01       25.00       25.00       25.00       25.00       25.00    
        25.00       25.00       25.00       25.00       25.00       25.00       25.00       25.00       25.00       25.00    
  20    25.16       25.16       25.16       25.15       25.14       25.13       25.12       25.11       25.10       25.09    
        25.08       25.07       25.06       25.05       25.04       25.03       25.03       25.02       25.02       25.02    
        25.01       25.01       25.01       25.01       25.01       25.00       25.00       25.00       25.00       25.00    
        25.00       25.00       25.00       25.00       25.00       25.00       25.00       25.00       25.00       25.00    
  21    25.12       25.12       25.12       25.11       25.11       25.10       25.09       25.08       25.07       25.07    
        25.06       25.05       25.04       25.04       25.03       25.03       25.02       25.02       25.02       25.01    
        25.01       25.01       25.01       25.01       25.00       25.00       25.00       25.00       25.00       25.00    
        25.00       25.00       25.00       25.00       25.00       25.00       25.00       25.00       25.00       25.00    
  22    25.09       25.09       25.09       25.09       25.08       25.08       25.07       25.06       25.06       25.05    
        25.05       25.04       25.03       25.03       25.02       25.02       25.02       25.01       25.01       25.01    
        25.01       25.01       25.01       25.00       25.00       25.00       25.00       25.00       25.00       25.00    
        25.00       25.00       25.00       25.00       25.00       25.00       25.00       25.00       25.00       25.00    
  23    25.07       25.07       25.07       25.06       25.06       25.06       25.05       25.05       25.04       25.04    
        25.03       25.03       25.03       25.02       25.02       25.02       25.01       25.01       25.01       25.01    
        25.01       25.01       25.00       25.00       25.00       25.00       25.00       25.00       25.00       25.00    
        25.00       25.00       25.00       25.00       25.00       25.00       25.00       25.00       25.00       25.00    
  24    25.05       25.05       25.05       25.05       25.05       25.04       25.04       25.04       25.03       25.03    
        25.03       25.02       25.02       25.02       25.02       25.01       25.01       25.01       25.01       25.01    
        25.01       25.00       25.00       25.00       25.00       25.00       25.00       25.00       25.00       25.00    
        25.00       25.00       25.00       25.00       25.00       25.00       25.00       25.00       25.00       25.00    
  25    25.04       25.04       25.04       25.04       25.03       25.03       25.03       25.03       25.03       25.02    
        25.02       25.02       25.02       25.01       25.01       25.01       25.01       25.01       25.01       25.01    
        25.00       25.00       25.00       25.00       25.00       25.00       25.00       25.00       25.00       25.00    
        25.00       25.00       25.00       25.00       25.00       25.00       25.00       25.00       25.00       25.00    
  26    25.03       25.03       25.03       25.03       25.03       25.02       25.02       25.02       25.02       25.02    
        25.02       25.01       25.01       25.01       25.01       25.01       25.01       25.01       25.00       25.00    
        25.00       25.00       25.00       25.00       25.00       25.00       25.00       25.00       25.00       25.00    
        25.00       25.00       25.00       25.00       25.00       25.00       25.00       25.00       25.00       25.00    
  27    25.02       25.02       25.02       25.02       25.02       25.02       25.02       25.02       25.01       25.01    
        25.01       25.01       25.01       25.01       25.01       25.01       25.01       25.00       25.00       25.00    
        25.00       25.00       25.00       25.00       25.00       25.00       25.00       25.00       25.00       25.00    
        25.00       25.00       25.00       25.00       25.00       25.00       25.00       25.00       25.00       25.00    
  28    25.02       25.02       25.02       25.02       25.01       25.01       25.01       25.01       25.01       25.01    
        25.01       25.01       25.01       25.01       25.01       25.00       25.00       25.00       25.00       25.00    
        25.00       25.00       25.00       25.00       25.00       25.00       25.00       25.00       25.00       25.00    
        25.00       25.00       25.00       25.00       25.00       25.00       25.00       25.00       25.00       25.00    
  29    25.01       25.01       25.01       25.01       25.01       25.01       25.01       25.01       25.01       25.01    
        25.01       25.01       25.01       25.00       25.00       25.00       25.00       25.00       25.00       25.00    
        25.00       25.00       25.00       25.00       25.00       25.00       25.00       25.00       25.00       25.00    
        25.00       25.00       25.00       25.00       25.00       25.00       25.00       25.00       25.00       25.00    
  30    25.01       25.01       25.01       25.01       25.01       25.01       25.01       25.01       25.01       25.01    
        25.01       25.00       25.00       25.00       25.00       25.00       25.00       25.00       25.00       25.00    
        25.00       25.00       25.00       25.00       25.00       25.00       25.00       25.00       25.00       25.00    
        25.00       25.00       25.00       25.00       25.00       25.00       25.00       25.00       25.00       25.00    
  31    25.01       25.01       25.01       25.01       25.01       25.01       25.01       25.01       25.00       25.00    
        25.00       25.00       25.00       25.00       25.00       25.00       25.00       25.00       25.00       25.00    
        25.00       25.00       25.00       25.00       25.00       25.00       25.00       25.00       25.00       25.00    
        25.00       25.00       25.00       25.00       25.00       25.00       25.00       25.00       25.00       25.00    
  32    25.00       25.00       25.00       25.00       25.00       25.00       25.00       25.00       25.00       25.00    
        25.00       25.00       25.00       25.00       25.00       25.00       25.00       25.00       25.00       25.00    
        25.00       25.00       25.00       25.00       25.00       25.00       25.00       25.00       25.00       25.00    
        25.00       25.00       25.00       25.00       25.00       25.00       25.00       25.00       25.00       25.00    
  33    25.00       25.00       25.00       25.00       25.00       25.00       25.00       25.00       25.00       25.00    
        25.00       25.00       25.00       25.00       25.00       25.00       25.00       25.00       25.00       25.00    
        25.00       25.00       25.00       25.00       25.00       25.00       25.00       25.00       25.00       25.00    
        25.00       25.00       25.00       25.00       25.00       25.00       25.00       25.00       25.00       25.00    
  34    25.00       25.00       25.00       25.00       25.00       25.00       25.00       25.00       25.00       25.00    
        25.00       25.00       25.00       25.00       25.00       25.00       25.00       25.00       25.00       25.00    
        25.00       25.00       25.00       25.00       25.00       25.00       25.00       25.00       25.00       25.00    
        25.00       25.00       25.00       25.00       25.00       25.00       25.00       25.00       25.00       25.00    
  35    25.00       25.00       25.00       25.00       25.00       25.00       25.00       25.00       25.00       25.00    
        25.00       25.00       25.00       25.00       25.00       25.00       25.00       25.00       25.00       25.00    
        25.00       25.00       25.00       25.00       25.00       25.00       25.00       25.00       25.00       25.00    
        25.00       25.00       25.00       25.00       25.00       25.00       25.00       25.00       25.00       25.00    
  36    25.00       25.00       25.00       25.00       25.00       25.00       25.00       25.00       25.00       25.00    
        25.00       25.00       25.00       25.00       25.00       25.00       25.00       25.00       25.00       25.00    
        25.00       25.00       25.00       25.00       25.00       25.00       25.00       25.00       25.00       25.00    
        25.00       25.00       25.00       25.00       25.00       25.00       25.00       25.00       25.00       25.00    
  37    25.00       25.00       25.00       25.00       25.00       25.00       25.00       25.00       25.00       25.00    
        25.00       25.00       25.00       25.00       25.00       25.00       25.00       25.00       25.00       25.00    
        25.00       25.00       25.00       25.00       25.00       25.00       25.00       25.00       25.00       25.00    
        25.00       25.00       25.00       25.00       25.00       25.00       25.00       25.00       25.00       25.00    
  38    25.00       25.00       25.00       25.00       25.00       25.00       25.00       25.00       25.00       25.00    
        25.00       25.00       25.00       25.00       25.00       25.00       25.00       25.00       25.00       25.00    
        25.00       25.00       25.00       25.00       25.00       25.00       25.00       25.00       25.00       25.00    
        25.00       25.00       25.00       25.00       25.00       25.00       25.00       25.00       25.00       25.00    
  39    25.00       25.00       25.00       25.00       25.00       25.00       25.00       25.00       25.00       25.00    
        25.00       25.00       25.00       25.00       25.00       25.00       25.00       25.00       25.00       25.00    
        25.00       25.00       25.00       25.00       25.00       25.00       25.00       25.00       25.00       25.00    
        25.00       25.00       25.00       25.00       25.00       25.00       25.00       25.00       25.00       25.00    
  40    25.00       25.00       25.00       25.00       25.00       25.00       25.00       25.00       25.00       25.00    
        25.00       25.00       25.00       25.00       25.00       25.00       25.00       25.00       25.00       25.00    
        25.00       25.00       25.00       25.00       25.00       25.00       25.00       25.00       25.00       25.00    
        25.00       25.00       25.00       25.00       25.00       25.00       25.00       25.00       25.00       25.00    
1
              HEAD IN LAYER 11 AT END OF TIME STEP 2 IN STRESS PERIOD 2
  ---------------------------------------------------------------------------

            1           2           3           4           5           6           7           8           9          10
           11          12          13          14          15          16          17          18          19          20
           21          22          23          24          25          26          27          28          29          30
           31          32          33          34          35          36          37          38          39          40
 ........................................................................................................................
   1    43.76       42.23       39.21       36.38       34.05       32.17       30.64       29.41       28.43       27.66    
        27.04       26.56       26.19       25.91       25.69       25.52       25.39       25.29       25.22       25.17    
        25.12       25.09       25.07       25.05       25.04       25.03       25.02       25.02       25.01       25.01    
        25.01       25.00       25.00       25.00       25.00       25.00       25.00       25.00       25.00       25.00    
   2    42.23       40.90       38.22       35.70       33.60       31.86       30.43       29.27       28.33       27.58    
        26.99       26.53       26.16       25.89       25.67       25.51       25.38       25.29       25.22       25.16    
        25.12       25.09       25.07       25.05       25.04       25.03       25.02       25.02       25.01       25.01    
        25.01       25.00       25.00       25.00       25.00       25.00       25.00       25.00       25.00       25.00    
   3    39.21       38.22       36.40       34.51       32.79       31.30       30.04       28.99       28.13       27.44    
        26.89       26.45       26.11       25.85       25.65       25.49       25.37       25.28       25.21       25.16    
        25.12       25.09       25.07       25.05       25.04       25.03       25.02       25.02       25.01       25.01    
        25.01       25.00       25.00       25.00       25.00       25.00       25.00       25.00       25.00       25.00    
   4    36.38       35.70       34.51       33.15       31.82       30.60       29.53       28.62       27.87       27.25    
        26.75       26.36       26.04       25.80       25.61       25.46       25.35       25.27       25.20       25.15    
        25.11       25.09       25.06       25.05       25.04       25.03       25.02       25.02       25.01       25.01    
        25.01       25.00       25.00       25.00       25.00       25.00       25.00       25.00       25.00       25.00    
   5    34.05       33.60       32.79       31.82       30.81       29.84       28.97       28.21       27.56       27.03    
        26.59       26.24       25.96       25.74       25.56       25.43       25.33       25.25       25.19       25.14    
        25.11       25.08       25.06       25.05       25.03       25.03       25.02       25.01       25.01       25.01    
        25.01       25.00       25.00       25.00       25.00       25.00       25.00       25.00       25.00       25.00    
   6    32.17       31.86       31.30       30.60       29.84       29.09       28.40       27.78       27.24       26.79    
        26.41       26.11       25.86       25.67       25.51       25.39       25.30       25.23       25.18       25.13    
        25.10       25.08       25.06       25.04       25.03       25.02       25.02       25.01       25.01       25.01    
        25.01       25.00       25.00       25.00       25.00       25.00       25.00       25.00       25.00       25.00    
   7    30.64       30.43       30.04       29.53       28.97       28.40       27.85       27.36       26.92       26.54    
        26.23       25.97       25.76       25.59       25.46       25.36       25.27       25.21       25.16       25.12    
        25.09       25.07       25.05       25.04       25.03       25.02       25.02       25.01       25.01       25.01    
        25.01       25.00       25.00       25.00       25.00       25.00       25.00       25.00       25.00       25.00    
   8    29.41       29.27       28.99       28.62       28.21       27.78       27.36       26.97       26.62       26.31    
        26.06       25.84       25.66       25.52       25.41       25.32       25.24       25.19       25.14       25.11    
        25.08       25.06       25.05       25.04       25.03       25.02       25.02       25.01       25.01       25.01    
        25.01       25.00       25.00       25.00       25.00       25.00       25.00       25.00       25.00       25.00    
   9    28.43       28.33       28.13       27.87       27.56       27.24       26.92       26.62       26.34       26.10    
        25.89       25.72       25.57       25.45       25.35       25.28       25.22       25.17       25.13       25.10    
        25.08       25.06       25.04       25.03       25.03       25.02       25.01       25.01       25.01       25.01    
        25.00       25.00       25.00       25.00       25.00       25.00       25.00       25.00       25.00       25.00    
  10    27.66       27.58       27.44       27.25       27.03       26.79       26.54       26.31       26.10       25.91    
        25.74       25.60       25.48       25.39       25.30       25.24       25.19       25.15       25.11       25.09    
        25.07       25.05       25.04       25.03       25.02       25.02       25.01       25.01       25.01       25.01    
        25.00       25.00       25.00       25.00       25.00       25.00       25.00       25.00       25.00       25.00    
  11    27.04       26.99       26.89       26.75       26.59       26.41       26.23       26.06       25.89       25.74    
        25.61       25.50       25.40       25.32       25.26       25.20       25.16       25.13       25.10       25.08    
        25.06       25.05       25.04       25.03       25.02       25.02       25.01       25.01       25.01       25.01    
        25.00       25.00       25.00       25.00       25.00       25.00       25.00       25.00       25.00       25.00    
  12    26.56       26.53       26.45       26.36       26.24       26.11       25.97       25.84       25.72       25.60    
        25.50       25.41       25.34       25.27       25.22       25.17       25.14       25.11       25.08       25.07    
        25.05       25.04       25.03       25.02       25.02       25.01       25.01       25.01       25.01       25.00    
        25.00       25.00       25.00       25.00       25.00       25.00       25.00       25.00       25.00       25.00    
  13    26.19       26.16       26.11       26.04       25.96       25.86       25.76       25.66       25.57       25.48    
        25.40       25.34       25.28       25.22       25.18       25.15       25.12       25.09       25.07       25.06    
        25.04       25.03       25.03       25.02       25.02       25.01       25.01       25.01       25.01       25.00    
        25.00       25.00       25.00       25.00       25.00       25.00       25.00       25.00       25.00       25.00    
  14    25.91       25.89       25.85       25.80       25.74       25.67       25.59       25.52       25.45       25.39    
        25.32       25.27       25.22       25.18       25.15       25.12       25.10       25.08       25.06       25.05    
        25.04       25.03       25.02       25.02       25.01       25.01       25.01       25.01       25.00       25.00    
        25.00       25.00       25.00       25.00       25.00       25.00       25.00       25.00       25.00       25.00    
  15    25.69       25.67       25.65       25.61       25.56       25.51       25.46       25.41       25.35       25.30    
        25.26       25.22       25.18       25.15       25.12       25.10       25.08       25.06       25.05       25.04    
        25.03       25.03       25.02       25.02       25.01       25.01       25.01       25.01       25.00       25.00    
        25.00       25.00       25.00       25.00       25.00       25.00       25.00       25.00       25.00       25.00    
  16    25.52       25.51       25.49       25.46       25.43       25.39       25.36       25.32       25.28       25.24    
        25.20       25.17       25.15       25.12       25.10       25.08       25.07       25.05       25.04       25.03    
        25.03       25.02       25.02       25.01       25.01       25.01       25.01       25.00       25.00       25.00    
        25.00       25.00       25.00       25.00       25.00       25.00       25.00       25.00       25.00       25.00    
  17    25.39       25.38       25.37       25.35       25.33       25.30       25.27       25.24       25.22       25.19    
        25.16       25.14       25.12       25.10       25.08       25.07       25.05       25.04       25.04       25.03    
        25.02       25.02       25.01       25.01       25.01       25.01       25.01       25.00       25.00       25.00    
        25.00       25.00       25.00       25.00       25.00       25.00       25.00       25.00       25.00       25.00    
  18    25.29       25.29       25.28       25.27       25.25       25.23       25.21       25.19       25.17       25.15    
        25.13       25.11       25.09       25.08       25.06       25.05       25.04       25.04       25.03       25.02    
        25.02       25.01       25.01       25.01       25.01       25.01       25.00       25.00       25.00       25.00    
        25.00       25.00       25.00       25.00       25.00       25.00       25.00       25.00       25.00       25.00    
  19    25.22       25.22       25.21       25.20       25.19       25.18       25.16       25.14       25.13       25.11    
        25.10       25.08       25.07       25.06       25.05       25.04       25.04       25.03       25.02       25.02    
        25.02       25.01       25.01       25.01       25.01       25.00       25.00       25.00       25.00       25.00    
        25.00       25.00       25.00       25.00       25.00       25.00       25.00       25.00       25.00       25.00    
  20    25.17       25.16       25.16       25.15       25.14       25.13       25.12       25.11       25.10       25.09    
        25.08       25.07       25.06       25.05       25.04       25.03       25.03       25.02       25.02       25.02    
        25.01       25.01       25.01       25.01       25.01       25.00       25.00       25.00       25.00       25.00    
        25.00       25.00       25.00       25.00       25.00       25.00       25.00       25.00       25.00       25.00    
  21    25.12       25.12       25.12       25.11       25.11       25.10       25.09       25.08       25.08       25.07    
        25.06       25.05       25.04       25.04       25.03       25.03       25.02       25.02       25.02       25.01    
        25.01       25.01       25.01       25.01       25.00       25.00       25.00       25.00       25.00       25.00    
        25.00       25.00       25.00       25.00       25.00       25.00       25.00       25.00       25.00       25.00    
  22    25.09       25.09       25.09       25.09       25.08       25.08       25.07       25.06       25.06       25.05    
        25.05       25.04       25.03       25.03       25.03       25.02       25.02       25.01       25.01       25.01    
        25.01       25.01       25.01       25.00       25.00       25.00       25.00       25.00       25.00       25.00    
        25.00       25.00       25.00       25.00       25.00       25.00       25.00       25.00       25.00       25.00    
  23    25.07       25.07       25.07       25.06       25.06       25.06       25.05       25.05       25.04       25.04    
        25.04       25.03       25.03       25.02       25.02       25.02       25.01       25.01       25.01       25.01    
        25.01       25.01       25.00       25.00       25.00       25.00       25.00       25.00       25.00       25.00    
        25.00       25.00       25.00       25.00       25.00       25.00       25.00       25.00       25.00       25.00    
  24    25.05       25.05       25.05       25.05       25.05       25.04       25.04       25.04       25.03       25.03    
        25.03       25.02       25.02       25.02       25.02       25.01       25.01       25.01       25.01       25.01    
        25.01       25.00       25.00       25.00       25.00       25.00       25.00       25.00       25.00       25.00    
        25.00       25.00       25.00       25.00       25.00       25.00       25.00       25.00       25.00       25.00    
  25    25.04       25.04       25.04       25.04       25.03       25.03       25.03       25.03       25.03       25.02    
        25.02       25.02       25.02       25.01       25.01       25.01       25.01       25.01       25.01       25.01    
        25.00       25.00       25.00       25.00       25.00       25.00       25.00       25.00       25.00       25.00    
        25.00       25.00       25.00       25.00       25.00       25.00       25.00       25.00       25.00       25.00    
  26    25.03       25.03       25.03       25.03       25.03       25.02       25.02       25.02       25.02       25.02    
        25.02       25.01       25.01       25.01       25.01       25.01       25.01       25.01       25.00       25.00    
        25.00       25.00       25.00       25.00       25.00       25.00       25.00       25.00       25.00       25.00    
        25.00       25.00       25.00       25.00       25.00       25.00       25.00       25.00       25.00       25.00    
  27    25.02       25.02       25.02       25.02       25.02       25.02       25.02       25.02       25.01       25.01    
        25.01       25.01       25.01       25.01       25.01       25.01       25.01       25.00       25.00       25.00    
        25.00       25.00       25.00       25.00       25.00       25.00       25.00       25.00       25.00       25.00    
        25.00       25.00       25.00       25.00       25.00       25.00       25.00       25.00       25.00       25.00    
  28    25.02       25.02       25.02       25.02       25.01       25.01       25.01       25.01       25.01       25.01    
        25.01       25.01       25.01       25.01       25.01       25.00       25.00       25.00       25.00       25.00    
        25.00       25.00       25.00       25.00       25.00       25.00       25.00       25.00       25.00       25.00    
        25.00       25.00       25.00       25.00       25.00       25.00       25.00       25.00       25.00       25.00    
  29    25.01       25.01       25.01       25.01       25.01       25.01       25.01       25.01       25.01       25.01    
        25.01       25.01       25.01       25.00       25.00       25.00       25.00       25.00       25.00       25.00    
        25.00       25.00       25.00       25.00       25.00       25.00       25.00       25.00       25.00       25.00    
        25.00       25.00       25.00       25.00       25.00       25.00       25.00       25.00       25.00       25.00    
  30    25.01       25.01       25.01       25.01       25.01       25.01       25.01       25.01       25.01       25.01    
        25.01       25.00       25.00       25.00       25.00       25.00       25.00       25.00       25.00       25.00    
        25.00       25.00       25.00       25.00       25.00       25.00       25.00       25.00       25.00       25.00    
        25.00       25.00       25.00       25.00       25.00       25.00       25.00       25.00       25.00       25.00    
  31    25.01       25.01       25.01       25.01       25.01       25.01       25.01       25.01       25.00       25.00    
        25.00       25.00       25.00       25.00       25.00       25.00       25.00       25.00       25.00       25.00    
        25.00       25.00       25.00       25.00       25.00       25.00       25.00       25.00       25.00       25.00    
        25.00       25.00       25.00       25.00       25.00       25.00       25.00       25.00       25.00       25.00    
  32    25.00       25.00       25.00       25.00       25.00       25.00       25.00       25.00       25.00       25.00    
        25.00       25.00       25.00       25.00       25.00       25.00       25.00       25.00       25.00       25.00    
        25.00       25.00       25.00       25.00       25.00       25.00       25.00       25.00       25.00       25.00    
        25.00       25.00       25.00       25.00       25.00       25.00       25.00       25.00       25.00       25.00    
  33    25.00       25.00       25.00       25.00       25.00       25.00       25.00       25.00       25.00       25.00    
        25.00       25.00       25.00       25.00       25.00       25.00       25.00       25.00       25.00       25.00    
        25.00       25.00       25.00       25.00       25.00       25.00       25.00       25.00       25.00       25.00    
        25.00       25.00       25.00       25.00       25.00       25.00       25.00       25.00       25.00       25.00    
  34    25.00       25.00       25.00       25.00       25.00       25.00       25.00       25.00       25.00       25.00    
        25.00       25.00       25.00       25.00       25.00       25.00       25.00       25.00       25.00       25.00    
        25.00       25.00       25.00       25.00       25.00       25.00       25.00       25.00       25.00       25.00    
        25.00       25.00       25.00       25.00       25.00       25.00       25.00       25.00       25.00       25.00    
  35    25.00       25.00       25.00       25.00       25.00       25.00       25.00       25.00       25.00       25.00    
        25.00       25.00       25.00       25.00       25.00       25.00       25.00       25.00       25.00       25.00    
        25.00       25.00       25.00       25.00       25.00       25.00       25.00       25.00       25.00       25.00    
        25.00       25.00       25.00       25.00       25.00       25.00       25.00       25.00       25.00       25.00    
  36    25.00       25.00       25.00       25.00       25.00       25.00       25.00       25.00       25.00       25.00    
        25.00       25.00       25.00       25.00       25.00       25.00       25.00       25.00       25.00       25.00    
        25.00       25.00       25.00       25.00       25.00       25.00       25.00       25.00       25.00       25.00    
        25.00       25.00       25.00       25.00       25.00       25.00       25.00       25.00       25.00       25.00    
  37    25.00       25.00       25.00       25.00       25.00       25.00       25.00       25.00       25.00       25.00    
        25.00       25.00       25.00       25.00       25.00       25.00       25.00       25.00       25.00       25.00    
        25.00       25.00       25.00       25.00       25.00       25.00       25.00       25.00       25.00       25.00    
        25.00       25.00       25.00       25.00       25.00       25.00       25.00       25.00       25.00       25.00    
  38    25.00       25.00       25.00       25.00       25.00       25.00       25.00       25.00       25.00       25.00    
        25.00       25.00       25.00       25.00       25.00       25.00       25.00       25.00       25.00       25.00    
        25.00       25.00       25.00       25.00       25.00       25.00       25.00       25.00       25.00       25.00    
        25.00       25.00       25.00       25.00       25.00       25.00       25.00       25.00       25.00       25.00    
  39    25.00       25.00       25.00       25.00       25.00       25.00       25.00       25.00       25.00       25.00    
        25.00       25.00       25.00       25.00       25.00       25.00       25.00       25.00       25.00       25.00    
        25.00       25.00       25.00       25.00       25.00       25.00       25.00       25.00       25.00       25.00    
        25.00       25.00       25.00       25.00       25.00       25.00       25.00       25.00       25.00       25.00    
  40    25.00       25.00       25.00       25.00       25.00       25.00       25.00       25.00       25.00       25.00    
        25.00       25.00       25.00       25.00       25.00       25.00       25.00       25.00       25.00       25.00    
        25.00       25.00       25.00       25.00       25.00       25.00       25.00       25.00       25.00       25.00    
        25.00       25.00       25.00       25.00       25.00       25.00       25.00       25.00       25.00       25.00    
1
              HEAD IN LAYER 12 AT END OF TIME STEP 2 IN STRESS PERIOD 2
  ---------------------------------------------------------------------------

            1           2           3           4           5           6           7           8           9          10
           11          12          13          14          15          16          17          18          19          20
           21          22          23          24          25          26          27          28          29          30
           31          32          33          34          35          36          37          38          39          40
 ........................................................................................................................
   1    43.48       41.98       39.12       36.36       34.05       32.17       30.65       29.42       28.44       27.66    
        27.05       26.57       26.20       25.91       25.69       25.52       25.39       25.30       25.22       25.17    
        25.13       25.09       25.07       25.05       25.04       25.03       25.02       25.02       25.01       25.01    
        25.01       25.01       25.00       25.00       25.00       25.00       25.00       25.00       25.00       25.00    
   2    41.98       40.68       38.14       35.69       33.60       31.86       30.44       29.27       28.34       27.59    
        27.00       26.53       26.17       25.89       25.68       25.51       25.39       25.29       25.22       25.16    
        25.12       25.09       25.07       25.05       25.04       25.03       25.02       25.02       25.01       25.01    
        25.01       25.00       25.00       25.00       25.00       25.00       25.00       25.00       25.00       25.00    
   3    39.12       38.14       36.38       34.51       32.80       31.31       30.05       29.00       28.14       27.45    
        26.90       26.46       26.12       25.85       25.65       25.49       25.37       25.28       25.21       25.16    
        25.12       25.09       25.07       25.05       25.04       25.03       25.02       25.02       25.01       25.01    
        25.01       25.00       25.00       25.00       25.00       25.00       25.00       25.00       25.00       25.00    
   4    36.36       35.69       34.51       33.16       31.83       30.61       29.54       28.63       27.88       27.26    
        26.76       26.36       26.05       25.80       25.61       25.47       25.35       25.27       25.20       25.15    
        25.11       25.09       25.06       25.05       25.04       25.03       25.02       25.02       25.01       25.01    
        25.01       25.00       25.00       25.00       25.00       25.00       25.00       25.00       25.00       25.00    
   5    34.05       33.60       32.80       31.83       30.81       29.85       28.98       28.22       27.57       27.03    
        26.60       26.24       25.96       25.74       25.57       25.43       25.33       25.25       25.19       25.14    
        25.11       25.08       25.06       25.05       25.03       25.03       25.02       25.01       25.01       25.01    
        25.01       25.00       25.00       25.00       25.00       25.00       25.00       25.00       25.00       25.00    
   6    32.17       31.86       31.31       30.61       29.85       29.10       28.41       27.78       27.25       26.79    
        26.42       26.11       25.87       25.67       25.52       25.40       25.30       25.23       25.18       25.13    
        25.10       25.08       25.06       25.04       25.03       25.02       25.02       25.01       25.01       25.01    
        25.01       25.00       25.00       25.00       25.00       25.00       25.00       25.00       25.00       25.00    
   7    30.65       30.44       30.05       29.54       28.98       28.41       27.86       27.36       26.93       26.55    
        26.24       25.98       25.77       25.60       25.46       25.36       25.28       25.21       25.16       25.12    
        25.09       25.07       25.05       25.04       25.03       25.02       25.02       25.01       25.01       25.01    
        25.01       25.00       25.00       25.00       25.00       25.00       25.00       25.00       25.00       25.00    
   8    29.42       29.27       29.00       28.63       28.22       27.78       27.36       26.97       26.62       26.32    
        26.06       25.85       25.67       25.52       25.41       25.32       25.25       25.19       25.15       25.11    
        25.08       25.06       25.05       25.04       25.03       25.02       25.02       25.01       25.01       25.01    
        25.01       25.00       25.00       25.00       25.00       25.00       25.00       25.00       25.00       25.00    
   9    28.44       28.34       28.14       27.88       27.57       27.25       26.93       26.62       26.35       26.11    
        25.90       25.72       25.57       25.45       25.36       25.28       25.22       25.17       25.13       25.10    
        25.08       25.06       25.04       25.03       25.03       25.02       25.01       25.01       25.01       25.01    
        25.00       25.00       25.00       25.00       25.00       25.00       25.00       25.00       25.00       25.00    
  10    27.66       27.59       27.45       27.26       27.03       26.79       26.55       26.32       26.11       25.92    
        25.75       25.61       25.49       25.39       25.31       25.24       25.19       25.15       25.11       25.09    
        25.07       25.05       25.04       25.03       25.02       25.02       25.01       25.01       25.01       25.01    
        25.00       25.00       25.00       25.00       25.00       25.00       25.00       25.00       25.00       25.00    
  11    27.05       27.00       26.90       26.76       26.60       26.42       26.24       26.06       25.90       25.75    
        25.62       25.50       25.41       25.33       25.26       25.21       25.16       25.13       25.10       25.08    
        25.06       25.05       25.04       25.03       25.02       25.02       25.01       25.01       25.01       25.01    
        25.00       25.00       25.00       25.00       25.00       25.00       25.00       25.00       25.00       25.00    
  12    26.57       26.53       26.46       26.36       26.24       26.11       25.98       25.85       25.72       25.61    
        25.50       25.41       25.34       25.27       25.22       25.17       25.14       25.11       25.09       25.07    
        25.05       25.04       25.03       25.02       25.02       25.01       25.01       25.01       25.01       25.00    
        25.00       25.00       25.00       25.00       25.00       25.00       25.00       25.00       25.00       25.00    
  13    26.20       26.17       26.12       26.05       25.96       25.87       25.77       25.67       25.57       25.49    
        25.41       25.34       25.28       25.23       25.18       25.15       25.12       25.09       25.07       25.06    
        25.04       25.03       25.03       25.02       25.02       25.01       25.01       25.01       25.01       25.00    
        25.00       25.00       25.00       25.00       25.00       25.00       25.00       25.00       25.00       25.00    
  14    25.91       25.89       25.85       25.80       25.74       25.67       25.60       25.52       25.45       25.39    
        25.33       25.27       25.23       25.18       25.15       25.12       25.10       25.08       25.06       25.05    
        25.04       25.03       25.02       25.02       25.01       25.01       25.01       25.01       25.00       25.00    
        25.00       25.00       25.00       25.00       25.00       25.00       25.00       25.00       25.00       25.00    
  15    25.69       25.68       25.65       25.61       25.57       25.52       25.46       25.41       25.36       25.31    
        25.26       25.22       25.18       25.15       25.12       25.10       25.08       25.06       25.05       25.04    
        25.03       25.03       25.02       25.02       25.01       25.01       25.01       25.01       25.00       25.00    
        25.00       25.00       25.00       25.00       25.00       25.00       25.00       25.00       25.00       25.00    
  16    25.52       25.51       25.49       25.47       25.43       25.40       25.36       25.32       25.28       25.24    
        25.21       25.17       25.15       25.12       25.10       25.08       25.07       25.05       25.04       25.03    
        25.03       25.02       25.02       25.01       25.01       25.01       25.01       25.00       25.00       25.00    
        25.00       25.00       25.00       25.00       25.00       25.00       25.00       25.00       25.00       25.00    
  17    25.39       25.39       25.37       25.35       25.33       25.30       25.28       25.25       25.22       25.19    
        25.16       25.14       25.12       25.10       25.08       25.07       25.05       25.04       25.04       25.03    
        25.02       25.02       25.01       25.01       25.01       25.01       25.01       25.00       25.00       25.00    
        25.00       25.00       25.00       25.00       25.00       25.00       25.00       25.00       25.00       25.00    
  18    25.30       25.29       25.28       25.27       25.25       25.23       25.21       25.19       25.17       25.15    
        25.13       25.11       25.09       25.08       25.06       25.05       25.04       25.04       25.03       25.02    
        25.02       25.02       25.01       25.01       25.01       25.01       25.00       25.00       25.00       25.00    
        25.00       25.00       25.00       25.00       25.00       25.00       25.00       25.00       25.00       25.00    
  19    25.22       25.22       25.21       25.20       25.19       25.18       25.16       25.15       25.13       25.11    
        25.10       25.09       25.07       25.06       25.05       25.04       25.04       25.03       25.02       25.02    
        25.02       25.01       25.01       25.01       25.01       25.00       25.00       25.00       25.00       25.00    
        25.00       25.00       25.00       25.00       25.00       25.00       25.00       25.00       25.00       25.00    
  20    25.17       25.16       25.16       25.15       25.14       25.13       25.12       25.11       25.10       25.09    
        25.08       25.07       25.06       25.05       25.04       25.03       25.03       25.02       25.02       25.02    
        25.01       25.01       25.01       25.01       25.01       25.00       25.00       25.00       25.00       25.00    
        25.00       25.00       25.00       25.00       25.00       25.00       25.00       25.00       25.00       25.00    
  21    25.13       25.12       25.12       25.11       25.11       25.10       25.09       25.08       25.08       25.07    
        25.06       25.05       25.04       25.04       25.03       25.03       25.02       25.02       25.02       25.01    
        25.01       25.01       25.01       25.01       25.00       25.00       25.00       25.00       25.00       25.00    
        25.00       25.00       25.00       25.00       25.00       25.00       25.00       25.00       25.00       25.00    
  22    25.09       25.09       25.09       25.09       25.08       25.08       25.07       25.06       25.06       25.05    
        25.05       25.04       25.03       25.03       25.03       25.02       25.02       25.02       25.01       25.01    
        25.01       25.01       25.01       25.00       25.00       25.00       25.00       25.00       25.00       25.00    
        25.00       25.00       25.00       25.00       25.00       25.00       25.00       25.00       25.00       25.00    
  23    25.07       25.07       25.07       25.06       25.06       25.06       25.05       25.05       25.04       25.04    
        25.04       25.03       25.03       25.02       25.02       25.02       25.01       25.01       25.01       25.01    
        25.01       25.01       25.00       25.00       25.00       25.00       25.00       25.00       25.00       25.00    
        25.00       25.00       25.00       25.00       25.00       25.00       25.00       25.00       25.00       25.00    
  24    25.05       25.05       25.05       25.05       25.05       25.04       25.04       25.04       25.03       25.03    
        25.03       25.02       25.02       25.02       25.02       25.01       25.01       25.01       25.01       25.01    
        25.01       25.00       25.00       25.00       25.00       25.00       25.00       25.00       25.00       25.00    
        25.00       25.00       25.00       25.00       25.00       25.00       25.00       25.00       25.00       25.00    
  25    25.04       25.04       25.04       25.04       25.03       25.03       25.03       25.03       25.03       25.02    
        25.02       25.02       25.02       25.01       25.01       25.01       25.01       25.01       25.01       25.01    
        25.00       25.00       25.00       25.00       25.00       25.00       25.00       25.00       25.00       25.00    
        25.00       25.00       25.00       25.00       25.00       25.00       25.00       25.00       25.00       25.00    
  26    25.03       25.03       25.03       25.03       25.03       25.02       25.02       25.02       25.02       25.02    
        25.02       25.01       25.01       25.01       25.01       25.01       25.01       25.01       25.00       25.00    
        25.00       25.00       25.00       25.00       25.00       25.00       25.00       25.00       25.00       25.00    
        25.00       25.00       25.00       25.00       25.00       25.00       25.00       25.00       25.00       25.00    
  27    25.02       25.02       25.02       25.02       25.02       25.02       25.02       25.02       25.01       25.01    
        25.01       25.01       25.01       25.01       25.01       25.01       25.01       25.00       25.00       25.00    
        25.00       25.00       25.00       25.00       25.00       25.00       25.00       25.00       25.00       25.00    
        25.00       25.00       25.00       25.00       25.00       25.00       25.00       25.00       25.00       25.00    
  28    25.02       25.02       25.02       25.02       25.01       25.01       25.01       25.01       25.01       25.01    
        25.01       25.01       25.01       25.01       25.01       25.00       25.00       25.00       25.00       25.00    
        25.00       25.00       25.00       25.00       25.00       25.00       25.00       25.00       25.00       25.00    
        25.00       25.00       25.00       25.00       25.00       25.00       25.00       25.00       25.00       25.00    
  29    25.01       25.01       25.01       25.01       25.01       25.01       25.01       25.01       25.01       25.01    
        25.01       25.01       25.01       25.00       25.00       25.00       25.00       25.00       25.00       25.00    
        25.00       25.00       25.00       25.00       25.00       25.00       25.00       25.00       25.00       25.00    
        25.00       25.00       25.00       25.00       25.00       25.00       25.00       25.00       25.00       25.00    
  30    25.01       25.01       25.01       25.01       25.01       25.01       25.01       25.01       25.01       25.01    
        25.01       25.00       25.00       25.00       25.00       25.00       25.00       25.00       25.00       25.00    
        25.00       25.00       25.00       25.00       25.00       25.00       25.00       25.00       25.00       25.00    
        25.00       25.00       25.00       25.00       25.00       25.00       25.00       25.00       25.00       25.00    
  31    25.01       25.01       25.01       25.01       25.01       25.01       25.01       25.01       25.00       25.00    
        25.00       25.00       25.00       25.00       25.00       25.00       25.00       25.00       25.00       25.00    
        25.00       25.00       25.00       25.00       25.00       25.00       25.00       25.00       25.00       25.00    
        25.00       25.00       25.00       25.00       25.00       25.00       25.00       25.00       25.00       25.00    
  32    25.01       25.00       25.00       25.00       25.00       25.00       25.00       25.00       25.00       25.00    
        25.00       25.00       25.00       25.00       25.00       25.00       25.00       25.00       25.00       25.00    
        25.00       25.00       25.00       25.00       25.00       25.00       25.00       25.00       25.00       25.00    
        25.00       25.00       25.00       25.00       25.00       25.00       25.00       25.00       25.00       25.00    
  33    25.00       25.00       25.00       25.00       25.00       25.00       25.00       25.00       25.00       25.00    
        25.00       25.00       25.00       25.00       25.00       25.00       25.00       25.00       25.00       25.00    
        25.00       25.00       25.00       25.00       25.00       25.00       25.00       25.00       25.00       25.00    
        25.00       25.00       25.00       25.00       25.00       25.00       25.00       25.00       25.00       25.00    
  34    25.00       25.00       25.00       25.00       25.00       25.00       25.00       25.00       25.00       25.00    
        25.00       25.00       25.00       25.00       25.00       25.00       25.00       25.00       25.00       25.00    
        25.00       25.00       25.00       25.00       25.00       25.00       25.00       25.00       25.00       25.00    
        25.00       25.00       25.00       25.00       25.00       25.00       25.00       25.00       25.00       25.00    
  35    25.00       25.00       25.00       25.00       25.00       25.00       25.00       25.00       25.00       25.00    
        25.00       25.00       25.00       25.00       25.00       25.00       25.00       25.00       25.00       25.00    
        25.00       25.00       25.00       25.00       25.00       25.00       25.00       25.00       25.00       25.00    
        25.00       25.00       25.00       25.00       25.00       25.00       25.00       25.00       25.00       25.00    
  36    25.00       25.00       25.00       25.00       25.00       25.00       25.00       25.00       25.00       25.00    
        25.00       25.00       25.00       25.00       25.00       25.00       25.00       25.00       25.00       25.00    
        25.00       25.00       25.00       25.00       25.00       25.00       25.00       25.00       25.00       25.00    
        25.00       25.00       25.00       25.00       25.00       25.00       25.00       25.00       25.00       25.00    
  37    25.00       25.00       25.00       25.00       25.00       25.00       25.00       25.00       25.00       25.00    
        25.00       25.00       25.00       25.00       25.00       25.00       25.00       25.00       25.00       25.00    
        25.00       25.00       25.00       25.00       25.00       25.00       25.00       25.00       25.00       25.00    
        25.00       25.00       25.00       25.00       25.00       25.00       25.00       25.00       25.00       25.00    
  38    25.00       25.00       25.00       25.00       25.00       25.00       25.00       25.00       25.00       25.00    
        25.00       25.00       25.00       25.00       25.00       25.00       25.00       25.00       25.00       25.00    
        25.00       25.00       25.00       25.00       25.00       25.00       25.00       25.00       25.00       25.00    
        25.00       25.00       25.00       25.00       25.00       25.00       25.00       25.00       25.00       25.00    
  39    25.00       25.00       25.00       25.00       25.00       25.00       25.00       25.00       25.00       25.00    
        25.00       25.00       25.00       25.00       25.00       25.00       25.00       25.00       25.00       25.00    
        25.00       25.00       25.00       25.00       25.00       25.00       25.00       25.00       25.00       25.00    
        25.00       25.00       25.00       25.00       25.00       25.00       25.00       25.00       25.00       25.00    
  40    25.00       25.00       25.00       25.00       25.00       25.00       25.00       25.00       25.00       25.00    
        25.00       25.00       25.00       25.00       25.00       25.00       25.00       25.00       25.00       25.00    
        25.00       25.00       25.00       25.00       25.00       25.00       25.00       25.00       25.00       25.00    
        25.00       25.00       25.00       25.00       25.00       25.00       25.00       25.00       25.00       25.00    
1
              HEAD IN LAYER 13 AT END OF TIME STEP 2 IN STRESS PERIOD 2
  ---------------------------------------------------------------------------

            1           2           3           4           5           6           7           8           9          10
           11          12          13          14          15          16          17          18          19          20
           21          22          23          24          25          26          27          28          29          30
           31          32          33          34          35          36          37          38          39          40
 ........................................................................................................................
   1    43.29       41.82       39.06       36.34       34.04       32.17       30.65       29.43       28.45       27.67    
        27.05       26.57       26.20       25.91       25.69       25.52       25.39       25.30       25.22       25.17    
        25.13       25.09       25.07       25.05       25.04       25.03       25.02       25.02       25.01       25.01    
        25.01       25.01       25.00       25.00       25.00       25.00       25.00       25.00       25.00       25.00    
   2    41.82       40.53       38.10       35.68       33.60       31.87       30.44       29.28       28.34       27.59    
        27.00       26.54       26.17       25.89       25.68       25.51       25.39       25.29       25.22       25.17    
        25.12       25.09       25.07       25.05       25.04       25.03       25.02       25.02       25.01       25.01    
        25.01       25.00       25.00       25.00       25.00       25.00       25.00       25.00       25.00       25.00    
   3    39.06       38.10       36.36       34.51       32.80       31.31       30.05       29.01       28.15       27.45    
        26.90       26.46       26.12       25.86       25.65       25.49       25.37       25.28       25.21       25.16    
        25.12       25.09       25.07       25.05       25.04       25.03       25.02       25.02       25.01       25.01    
        25.01       25.00       25.00       25.00       25.00       25.00       25.00       25.00       25.00       25.00    
   4    36.34       35.68       34.51       33.16       31.83       30.61       29.55       28.64       27.88       27.26    
        26.76       26.37       26.05       25.81       25.62       25.47       25.36       25.27       25.20       25.15    
        25.12       25.09       25.07       25.05       25.04       25.03       25.02       25.02       25.01       25.01    
        25.01       25.00       25.00       25.00       25.00       25.00       25.00       25.00       25.00       25.00    
   5    34.04       33.60       32.80       31.83       30.82       29.86       28.98       28.22       27.58       27.04    
        26.60       26.25       25.96       25.74       25.57       25.44       25.33       25.25       25.19       25.14    
        25.11       25.08       25.06       25.05       25.03       25.03       25.02       25.01       25.01       25.01    
        25.01       25.00       25.00       25.00       25.00       25.00       25.00       25.00       25.00       25.00    
   6    32.17       31.87       31.31       30.61       29.86       29.11       28.41       27.79       27.25       26.80    
        26.42       26.12       25.87       25.67       25.52       25.40       25.30       25.23       25.18       25.13    
        25.10       25.08       25.06       25.04       25.03       25.02       25.02       25.01       25.01       25.01    
        25.01       25.00       25.00       25.00       25.00       25.00       25.00       25.00       25.00       25.00    
   7    30.65       30.44       30.05       29.55       28.98       28.41       27.87       27.37       26.93       26.56    
        26.24       25.98       25.77       25.60       25.47       25.36       25.28       25.21       25.16       25.12    
        25.09       25.07       25.05       25.04       25.03       25.02       25.02       25.01       25.01       25.01    
        25.01       25.00       25.00       25.00       25.00       25.00       25.00       25.00       25.00       25.00    
   8    29.43       29.28       29.01       28.64       28.22       27.79       27.37       26.98       26.63       26.32    
        26.06       25.85       25.67       25.53       25.41       25.32       25.25       25.19       25.15       25.11    
        25.09       25.06       25.05       25.04       25.03       25.02       25.02       25.01       25.01       25.01    
        25.01       25.00       25.00       25.00       25.00       25.00       25.00       25.00       25.00       25.00    
   9    28.45       28.34       28.15       27.88       27.58       27.25       26.93       26.63       26.35       26.11    
        25.90       25.72       25.58       25.46       25.36       25.28       25.22       25.17       25.13       25.10    
        25.08       25.06       25.04       25.03       25.03       25.02       25.01       25.01       25.01       25.01    
        25.00       25.00       25.00       25.00       25.00       25.00       25.00       25.00       25.00       25.00    
  10    27.67       27.59       27.45       27.26       27.04       26.80       26.56       26.32       26.11       25.92    
        25.75       25.61       25.49       25.39       25.31       25.24       25.19       25.15       25.11       25.09    
        25.07       25.05       25.04       25.03       25.02       25.02       25.01       25.01       25.01       25.01    
        25.00       25.00       25.00       25.00       25.00       25.00       25.00       25.00       25.00       25.00    
  11    27.05       27.00       26.90       26.76       26.60       26.42       26.24       26.06       25.90       25.75    
        25.62       25.51       25.41       25.33       25.26       25.21       25.16       25.13       25.10       25.08    
        25.06       25.05       25.04       25.03       25.02       25.02       25.01       25.01       25.01       25.01    
        25.00       25.00       25.00       25.00       25.00       25.00       25.00       25.00       25.00       25.00    
  12    26.57       26.54       26.46       26.37       26.25       26.12       25.98       25.85       25.72       25.61    
        25.51       25.42       25.34       25.27       25.22       25.17       25.14       25.11       25.09       25.07    
        25.05       25.04       25.03       25.02       25.02       25.01       25.01       25.01       25.01       25.00    
        25.00       25.00       25.00       25.00       25.00       25.00       25.00       25.00       25.00       25.00    
  13    26.20       26.17       26.12       26.05       25.96       25.87       25.77       25.67       25.58       25.49    
        25.41       25.34       25.28       25.23       25.18       25.15       25.12       25.09       25.07       25.06    
        25.04       25.03       25.03       25.02       25.02       25.01       25.01       25.01       25.01       25.00    
        25.00       25.00       25.00       25.00       25.00       25.00       25.00       25.00       25.00       25.00    
  14    25.91       25.89       25.86       25.81       25.74       25.67       25.60       25.53       25.46       25.39    
        25.33       25.27       25.23       25.19       25.15       25.12       25.10       25.08       25.06       25.05    
        25.04       25.03       25.02       25.02       25.01       25.01       25.01       25.01       25.00       25.00    
        25.00       25.00       25.00       25.00       25.00       25.00       25.00       25.00       25.00       25.00    
  15    25.69       25.68       25.65       25.62       25.57       25.52       25.47       25.41       25.36       25.31    
        25.26       25.22       25.18       25.15       25.12       25.10       25.08       25.06       25.05       25.04    
        25.03       25.03       25.02       25.02       25.01       25.01       25.01       25.01       25.00       25.00    
        25.00       25.00       25.00       25.00       25.00       25.00       25.00       25.00       25.00       25.00    
  16    25.52       25.51       25.49       25.47       25.44       25.40       25.36       25.32       25.28       25.24    
        25.21       25.17       25.15       25.12       25.10       25.08       25.07       25.05       25.04       25.03    
        25.03       25.02       25.02       25.01       25.01       25.01       25.01       25.00       25.00       25.00    
        25.00       25.00       25.00       25.00       25.00       25.00       25.00       25.00       25.00       25.00    
  17    25.39       25.39       25.37       25.36       25.33       25.30       25.28       25.25       25.22       25.19    
        25.16       25.14       25.12       25.10       25.08       25.07       25.05       25.04       25.04       25.03    
        25.02       25.02       25.01       25.01       25.01       25.01       25.01       25.00       25.00       25.00    
        25.00       25.00       25.00       25.00       25.00       25.00       25.00       25.00       25.00       25.00    
  18    25.30       25.29       25.28       25.27       25.25       25.23       25.21       25.19       25.17       25.15    
        25.13       25.11       25.09       25.08       25.06       25.05       25.04       25.04       25.03       25.02    
        25.02       25.02       25.01       25.01       25.01       25.01       25.00       25.00       25.00       25.00    
        25.00       25.00       25.00       25.00       25.00       25.00       25.00       25.00       25.00       25.00    
  19    25.22       25.22       25.21       25.20       25.19       25.18       25.16       25.15       25.13       25.11    
        25.10       25.09       25.07       25.06       25.05       25.04       25.04       25.03       25.02       25.02    
        25.02       25.01       25.01       25.01       25.01       25.00       25.00       25.00       25.00       25.00    
        25.00       25.00       25.00       25.00       25.00       25.00       25.00       25.00       25.00       25.00    
  20    25.17       25.17       25.16       25.15       25.14       25.13       25.12       25.11       25.10       25.09    
        25.08       25.07       25.06       25.05       25.04       25.03       25.03       25.02       25.02       25.02    
        25.01       25.01       25.01       25.01       25.01       25.00       25.00       25.00       25.00       25.00    
        25.00       25.00       25.00       25.00       25.00       25.00       25.00       25.00       25.00       25.00    
  21    25.13       25.12       25.12       25.12       25.11       25.10       25.09       25.09       25.08       25.07    
        25.06       25.05       25.04       25.04       25.03       25.03       25.02       25.02       25.02       25.01    
        25.01       25.01       25.01       25.01       25.00       25.00       25.00       25.00       25.00       25.00    
        25.00       25.00       25.00       25.00       25.00       25.00       25.00       25.00       25.00       25.00    
  22    25.09       25.09       25.09       25.09       25.08       25.08       25.07       25.06       25.06       25.05    
        25.05       25.04       25.03       25.03       25.03       25.02       25.02       25.02       25.01       25.01    
        25.01       25.01       25.01       25.00       25.00       25.00       25.00       25.00       25.00       25.00    
        25.00       25.00       25.00       25.00       25.00       25.00       25.00       25.00       25.00       25.00    
  23    25.07       25.07       25.07       25.07       25.06       25.06       25.05       25.05       25.04       25.04    
        25.04       25.03       25.03       25.02       25.02       25.02       25.01       25.01       25.01       25.01    
        25.01       25.01       25.00       25.00       25.00       25.00       25.00       25.00       25.00       25.00    
        25.00       25.00       25.00       25.00       25.00       25.00       25.00       25.00       25.00       25.00    
  24    25.05       25.05       25.05       25.05       25.05       25.04       25.04       25.04       25.03       25.03    
        25.03       25.02       25.02       25.02       25.02       25.01       25.01       25.01       25.01       25.01    
        25.01       25.00       25.00       25.00       25.00       25.00       25.00       25.00       25.00       25.00    
        25.00       25.00       25.00       25.00       25.00       25.00       25.00       25.00       25.00       25.00    
  25    25.04       25.04       25.04       25.04       25.03       25.03       25.03       25.03       25.03       25.02    
        25.02       25.02       25.02       25.01       25.01       25.01       25.01       25.01       25.01       25.01    
        25.00       25.00       25.00       25.00       25.00       25.00       25.00       25.00       25.00       25.00    
        25.00       25.00       25.00       25.00       25.00       25.00       25.00       25.00       25.00       25.00    
  26    25.03       25.03       25.03       25.03       25.03       25.02       25.02       25.02       25.02       25.02    
        25.02       25.01       25.01       25.01       25.01       25.01       25.01       25.01       25.00       25.00    
        25.00       25.00       25.00       25.00       25.00       25.00       25.00       25.00       25.00       25.00    
        25.00       25.00       25.00       25.00       25.00       25.00       25.00       25.00       25.00       25.00    
  27    25.02       25.02       25.02       25.02       25.02       25.02       25.02       25.02       25.01       25.01    
        25.01       25.01       25.01       25.01       25.01       25.01       25.01       25.00       25.00       25.00    
        25.00       25.00       25.00       25.00       25.00       25.00       25.00       25.00       25.00       25.00    
        25.00       25.00       25.00       25.00       25.00       25.00       25.00       25.00       25.00       25.00    
  28    25.02       25.02       25.02       25.02       25.01       25.01       25.01       25.01       25.01       25.01    
        25.01       25.01       25.01       25.01       25.01       25.00       25.00       25.00       25.00       25.00    
        25.00       25.00       25.00       25.00       25.00       25.00       25.00       25.00       25.00       25.00    
        25.00       25.00       25.00       25.00       25.00       25.00       25.00       25.00       25.00       25.00    
  29    25.01       25.01       25.01       25.01       25.01       25.01       25.01       25.01       25.01       25.01    
        25.01       25.01       25.01       25.00       25.00       25.00       25.00       25.00       25.00       25.00    
        25.00       25.00       25.00       25.00       25.00       25.00       25.00       25.00       25.00       25.00    
        25.00       25.00       25.00       25.00       25.00       25.00       25.00       25.00       25.00       25.00    
  30    25.01       25.01       25.01       25.01       25.01       25.01       25.01       25.01       25.01       25.01    
        25.01       25.00       25.00       25.00       25.00       25.00       25.00       25.00       25.00       25.00    
        25.00       25.00       25.00       25.00       25.00       25.00       25.00       25.00       25.00       25.00    
        25.00       25.00       25.00       25.00       25.00       25.00       25.00       25.00       25.00       25.00    
  31    25.01       25.01       25.01       25.01       25.01       25.01       25.01       25.01       25.00       25.00    
        25.00       25.00       25.00       25.00       25.00       25.00       25.00       25.00       25.00       25.00    
        25.00       25.00       25.00       25.00       25.00       25.00       25.00       25.00       25.00       25.00    
        25.00       25.00       25.00       25.00       25.00       25.00       25.00       25.00       25.00       25.00    
  32    25.01       25.00       25.00       25.00       25.00       25.00       25.00       25.00       25.00       25.00    
        25.00       25.00       25.00       25.00       25.00       25.00       25.00       25.00       25.00       25.00    
        25.00       25.00       25.00       25.00       25.00       25.00       25.00       25.00       25.00       25.00    
        25.00       25.00       25.00       25.00       25.00       25.00       25.00       25.00       25.00       25.00    
  33    25.00       25.00       25.00       25.00       25.00       25.00       25.00       25.00       25.00       25.00    
        25.00       25.00       25.00       25.00       25.00       25.00       25.00       25.00       25.00       25.00    
        25.00       25.00       25.00       25.00       25.00       25.00       25.00       25.00       25.00       25.00    
        25.00       25.00       25.00       25.00       25.00       25.00       25.00       25.00       25.00       25.00    
  34    25.00       25.00       25.00       25.00       25.00       25.00       25.00       25.00       25.00       25.00    
        25.00       25.00       25.00       25.00       25.00       25.00       25.00       25.00       25.00       25.00    
        25.00       25.00       25.00       25.00       25.00       25.00       25.00       25.00       25.00       25.00    
        25.00       25.00       25.00       25.00       25.00       25.00       25.00       25.00       25.00       25.00    
  35    25.00       25.00       25.00       25.00       25.00       25.00       25.00       25.00       25.00       25.00    
        25.00       25.00       25.00       25.00       25.00       25.00       25.00       25.00       25.00       25.00    
        25.00       25.00       25.00       25.00       25.00       25.00       25.00       25.00       25.00       25.00    
        25.00       25.00       25.00       25.00       25.00       25.00       25.00       25.00       25.00       25.00    
  36    25.00       25.00       25.00       25.00       25.00       25.00       25.00       25.00       25.00       25.00    
        25.00       25.00       25.00       25.00       25.00       25.00       25.00       25.00       25.00       25.00    
        25.00       25.00       25.00       25.00       25.00       25.00       25.00       25.00       25.00       25.00    
        25.00       25.00       25.00       25.00       25.00       25.00       25.00       25.00       25.00       25.00    
  37    25.00       25.00       25.00       25.00       25.00       25.00       25.00       25.00       25.00       25.00    
        25.00       25.00       25.00       25.00       25.00       25.00       25.00       25.00       25.00       25.00    
        25.00       25.00       25.00       25.00       25.00       25.00       25.00       25.00       25.00       25.00    
        25.00       25.00       25.00       25.00       25.00       25.00       25.00       25.00       25.00       25.00    
  38    25.00       25.00       25.00       25.00       25.00       25.00       25.00       25.00       25.00       25.00    
        25.00       25.00       25.00       25.00       25.00       25.00       25.00       25.00       25.00       25.00    
        25.00       25.00       25.00       25.00       25.00       25.00       25.00       25.00       25.00       25.00    
        25.00       25.00       25.00       25.00       25.00       25.00       25.00       25.00       25.00       25.00    
  39    25.00       25.00       25.00       25.00       25.00       25.00       25.00       25.00       25.00       25.00    
        25.00       25.00       25.00       25.00       25.00       25.00       25.00       25.00       25.00       25.00    
        25.00       25.00       25.00       25.00       25.00       25.00       25.00       25.00       25.00       25.00    
        25.00       25.00       25.00       25.00       25.00       25.00       25.00       25.00       25.00       25.00    
  40    25.00       25.00       25.00       25.00       25.00       25.00       25.00       25.00       25.00       25.00    
        25.00       25.00       25.00       25.00       25.00       25.00       25.00       25.00       25.00       25.00    
        25.00       25.00       25.00       25.00       25.00       25.00       25.00       25.00       25.00       25.00    
        25.00       25.00       25.00       25.00       25.00       25.00       25.00       25.00       25.00       25.00    
1
              HEAD IN LAYER 14 AT END OF TIME STEP 2 IN STRESS PERIOD 2
  ---------------------------------------------------------------------------

            1           2           3           4           5           6           7           8           9          10
           11          12          13          14          15          16          17          18          19          20
           21          22          23          24          25          26          27          28          29          30
           31          32          33          34          35          36          37          38          39          40
 ........................................................................................................................
   1    43.19       41.74       39.03       36.33       34.04       32.17       30.66       29.43       28.45       27.67    
        27.06       26.58       26.20       25.91       25.69       25.52       25.40       25.30       25.22       25.17    
        25.13       25.09       25.07       25.05       25.04       25.03       25.02       25.02       25.01       25.01    
        25.01       25.01       25.00       25.00       25.00       25.00       25.00       25.00       25.00       25.00    
   2    41.74       40.46       38.07       35.67       33.60       31.87       30.44       29.28       28.35       27.60    
        27.00       26.54       26.18       25.90       25.68       25.51       25.39       25.29       25.22       25.17    
        25.12       25.09       25.07       25.05       25.04       25.03       25.02       25.02       25.01       25.01    
        25.01       25.00       25.00       25.00       25.00       25.00       25.00       25.00       25.00       25.00    
   3    39.03       38.07       36.35       34.51       32.80       31.32       30.06       29.01       28.15       27.46    
        26.90       26.47       26.12       25.86       25.65       25.50       25.37       25.28       25.21       25.16    
        25.12       25.09       25.07       25.05       25.04       25.03       25.02       25.02       25.01       25.01    
        25.01       25.00       25.00       25.00       25.00       25.00       25.00       25.00       25.00       25.00    
   4    36.33       35.67       34.51       33.16       31.83       30.62       29.55       28.64       27.89       27.27    
        26.77       26.37       26.05       25.81       25.62       25.47       25.36       25.27       25.20       25.15    
        25.12       25.09       25.07       25.05       25.04       25.03       25.02       25.02       25.01       25.01    
        25.01       25.00       25.00       25.00       25.00       25.00       25.00       25.00       25.00       25.00    
   5    34.04       33.60       32.80       31.83       30.82       29.86       28.99       28.23       27.58       27.04    
        26.60       26.25       25.97       25.74       25.57       25.44       25.33       25.25       25.19       25.14    
        25.11       25.08       25.06       25.05       25.04       25.03       25.02       25.01       25.01       25.01    
        25.01       25.00       25.00       25.00       25.00       25.00       25.00       25.00       25.00       25.00    
   6    32.17       31.87       31.32       30.62       29.86       29.11       28.42       27.79       27.25       26.80    
        26.42       26.12       25.87       25.67       25.52       25.40       25.31       25.23       25.18       25.13    
        25.10       25.08       25.06       25.04       25.03       25.02       25.02       25.01       25.01       25.01    
        25.01       25.00       25.00       25.00       25.00       25.00       25.00       25.00       25.00       25.00    
   7    30.66       30.44       30.06       29.55       28.99       28.42       27.87       27.37       26.93       26.56    
        26.24       25.98       25.77       25.60       25.47       25.36       25.28       25.21       25.16       25.12    
        25.09       25.07       25.05       25.04       25.03       25.02       25.02       25.01       25.01       25.01    
        25.01       25.00       25.00       25.00       25.00       25.00       25.00       25.00       25.00       25.00    
   8    29.43       29.28       29.01       28.64       28.23       27.79       27.37       26.98       26.63       26.33    
        26.07       25.85       25.67       25.53       25.41       25.32       25.25       25.19       25.15       25.11    
        25.09       25.06       25.05       25.04       25.03       25.02       25.02       25.01       25.01       25.01    
        25.01       25.00       25.00       25.00       25.00       25.00       25.00       25.00       25.00       25.00    
   9    28.45       28.35       28.15       27.89       27.58       27.25       26.93       26.63       26.35       26.11    
        25.90       25.72       25.58       25.46       25.36       25.28       25.22       25.17       25.13       25.10    
        25.08       25.06       25.04       25.03       25.03       25.02       25.01       25.01       25.01       25.01    
        25.00       25.00       25.00       25.00       25.00       25.00       25.00       25.00       25.00       25.00    
  10    27.67       27.60       27.46       27.27       27.04       26.80       26.56       26.33       26.11       25.92    
        25.75       25.61       25.49       25.39       25.31       25.24       25.19       25.15       25.11       25.09    
        25.07       25.05       25.04       25.03       25.02       25.02       25.01       25.01       25.01       25.01    
        25.00       25.00       25.00       25.00       25.00       25.00       25.00       25.00       25.00       25.00    
  11    27.06       27.00       26.90       26.77       26.60       26.42       26.24       26.07       25.90       25.75    
        25.62       25.51       25.41       25.33       25.26       25.21       25.16       25.13       25.10       25.08    
        25.06       25.05       25.04       25.03       25.02       25.02       25.01       25.01       25.01       25.01    
        25.00       25.00       25.00       25.00       25.00       25.00       25.00       25.00       25.00       25.00    
  12    26.58       26.54       26.47       26.37       26.25       26.12       25.98       25.85       25.72       25.61    
        25.51       25.42       25.34       25.27       25.22       25.18       25.14       25.11       25.09       25.07    
        25.05       25.04       25.03       25.02       25.02       25.01       25.01       25.01       25.01       25.00    
        25.00       25.00       25.00       25.00       25.00       25.00       25.00       25.00       25.00       25.00    
  13    26.20       26.18       26.12       26.05       25.97       25.87       25.77       25.67       25.58       25.49    
        25.41       25.34       25.28       25.23       25.18       25.15       25.12       25.09       25.07       25.06    
        25.04       25.03       25.03       25.02       25.02       25.01       25.01       25.01       25.01       25.00    
        25.00       25.00       25.00       25.00       25.00       25.00       25.00       25.00       25.00       25.00    
  14    25.91       25.90       25.86       25.81       25.74       25.67       25.60       25.53       25.46       25.39    
        25.33       25.27       25.23       25.19       25.15       25.12       25.10       25.08       25.06       25.05    
        25.04       25.03       25.02       25.02       25.01       25.01       25.01       25.01       25.00       25.00    
        25.00       25.00       25.00       25.00       25.00       25.00       25.00       25.00       25.00       25.00    
  15    25.69       25.68       25.65       25.62       25.57       25.52       25.47       25.41       25.36       25.31    
        25.26       25.22       25.18       25.15       25.12       25.10       25.08       25.07       25.05       25.04    
        25.03       25.03       25.02       25.02       25.01       25.01       25.01       25.01       25.00       25.00    
        25.00       25.00       25.00       25.00       25.00       25.00       25.00       25.00       25.00       25.00    
  16    25.52       25.51       25.50       25.47       25.44       25.40       25.36       25.32       25.28       25.24    
        25.21       25.18       25.15       25.12       25.10       25.08       25.07       25.05       25.04       25.03    
        25.03       25.02       25.02       25.01       25.01       25.01       25.01       25.00       25.00       25.00    
        25.00       25.00       25.00       25.00       25.00       25.00       25.00       25.00       25.00       25.00    
  17    25.40       25.39       25.37       25.36       25.33       25.31       25.28       25.25       25.22       25.19    
        25.16       25.14       25.12       25.10       25.08       25.07       25.05       25.04       25.04       25.03    
        25.02       25.02       25.01       25.01       25.01       25.01       25.01       25.00       25.00       25.00    
        25.00       25.00       25.00       25.00       25.00       25.00       25.00       25.00       25.00       25.00    
  18    25.30       25.29       25.28       25.27       25.25       25.23       25.21       25.19       25.17       25.15    
        25.13       25.11       25.09       25.08       25.07       25.05       25.04       25.04       25.03       25.02    
        25.02       25.02       25.01       25.01       25.01       25.01       25.00       25.00       25.00       25.00    
        25.00       25.00       25.00       25.00       25.00       25.00       25.00       25.00       25.00       25.00    
  19    25.22       25.22       25.21       25.20       25.19       25.18       25.16       25.15       25.13       25.11    
        25.10       25.09       25.07       25.06       25.05       25.04       25.04       25.03       25.02       25.02    
        25.02       25.01       25.01       25.01       25.01       25.00       25.00       25.00       25.00       25.00    
        25.00       25.00       25.00       25.00       25.00       25.00       25.00       25.00       25.00       25.00    
  20    25.17       25.17       25.16       25.15       25.14       25.13       25.12       25.11       25.10       25.09    
        25.08       25.07       25.06       25.05       25.04       25.03       25.03       25.02       25.02       25.02    
        25.01       25.01       25.01       25.01       25.01       25.00       25.00       25.00       25.00       25.00    
        25.00       25.00       25.00       25.00       25.00       25.00       25.00       25.00       25.00       25.00    
  21    25.13       25.12       25.12       25.12       25.11       25.10       25.09       25.09       25.08       25.07    
        25.06       25.05       25.04       25.04       25.03       25.03       25.02       25.02       25.02       25.01    
        25.01       25.01       25.01       25.01       25.00       25.00       25.00       25.00       25.00       25.00    
        25.00       25.00       25.00       25.00       25.00       25.00       25.00       25.00       25.00       25.00    
  22    25.09       25.09       25.09       25.09       25.08       25.08       25.07       25.06       25.06       25.05    
        25.05       25.04       25.03       25.03       25.03       25.02       25.02       25.02       25.01       25.01    
        25.01       25.01       25.01       25.00       25.00       25.00       25.00       25.00       25.00       25.00    
        25.00       25.00       25.00       25.00       25.00       25.00       25.00       25.00       25.00       25.00    
  23    25.07       25.07       25.07       25.07       25.06       25.06       25.05       25.05       25.04       25.04    
        25.04       25.03       25.03       25.02       25.02       25.02       25.01       25.01       25.01       25.01    
        25.01       25.01       25.00       25.00       25.00       25.00       25.00       25.00       25.00       25.00    
        25.00       25.00       25.00       25.00       25.00       25.00       25.00       25.00       25.00       25.00    
  24    25.05       25.05       25.05       25.05       25.05       25.04       25.04       25.04       25.03       25.03    
        25.03       25.02       25.02       25.02       25.02       25.01       25.01       25.01       25.01       25.01    
        25.01       25.00       25.00       25.00       25.00       25.00       25.00       25.00       25.00       25.00    
        25.00       25.00       25.00       25.00       25.00       25.00       25.00       25.00       25.00       25.00    
  25    25.04       25.04       25.04       25.04       25.04       25.03       25.03       25.03       25.03       25.02    
        25.02       25.02       25.02       25.01       25.01       25.01       25.01       25.01       25.01       25.01    
        25.00       25.00       25.00       25.00       25.00       25.00       25.00       25.00       25.00       25.00    
        25.00       25.00       25.00       25.00       25.00       25.00       25.00       25.00       25.00       25.00    
  26    25.03       25.03       25.03       25.03       25.03       25.02       25.02       25.02       25.02       25.02    
        25.02       25.01       25.01       25.01       25.01       25.01       25.01       25.01       25.00       25.00    
        25.00       25.00       25.00       25.00       25.00       25.00       25.00       25.00       25.00       25.00    
        25.00       25.00       25.00       25.00       25.00       25.00       25.00       25.00       25.00       25.00    
  27    25.02       25.02       25.02       25.02       25.02       25.02       25.02       25.02       25.01       25.01    
        25.01       25.01       25.01       25.01       25.01       25.01       25.01       25.00       25.00       25.00    
        25.00       25.00       25.00       25.00       25.00       25.00       25.00       25.00       25.00       25.00    
        25.00       25.00       25.00       25.00       25.00       25.00       25.00       25.00       25.00       25.00    
  28    25.02       25.02       25.02       25.02       25.01       25.01       25.01       25.01       25.01       25.01    
        25.01       25.01       25.01       25.01       25.01       25.00       25.00       25.00       25.00       25.00    
        25.00       25.00       25.00       25.00       25.00       25.00       25.00       25.00       25.00       25.00    
        25.00       25.00       25.00       25.00       25.00       25.00       25.00       25.00       25.00       25.00    
  29    25.01       25.01       25.01       25.01       25.01       25.01       25.01       25.01       25.01       25.01    
        25.01       25.01       25.01       25.00       25.00       25.00       25.00       25.00       25.00       25.00    
        25.00       25.00       25.00       25.00       25.00       25.00       25.00       25.00       25.00       25.00    
        25.00       25.00       25.00       25.00       25.00       25.00       25.00       25.00       25.00       25.00    
  30    25.01       25.01       25.01       25.01       25.01       25.01       25.01       25.01       25.01       25.01    
        25.01       25.00       25.00       25.00       25.00       25.00       25.00       25.00       25.00       25.00    
        25.00       25.00       25.00       25.00       25.00       25.00       25.00       25.00       25.00       25.00    
        25.00       25.00       25.00       25.00       25.00       25.00       25.00       25.00       25.00       25.00    
  31    25.01       25.01       25.01       25.01       25.01       25.01       25.01       25.01       25.00       25.00    
        25.00       25.00       25.00       25.00       25.00       25.00       25.00       25.00       25.00       25.00    
        25.00       25.00       25.00       25.00       25.00       25.00       25.00       25.00       25.00       25.00    
        25.00       25.00       25.00       25.00       25.00       25.00       25.00       25.00       25.00       25.00    
  32    25.01       25.00       25.00       25.00       25.00       25.00       25.00       25.00       25.00       25.00    
        25.00       25.00       25.00       25.00       25.00       25.00       25.00       25.00       25.00       25.00    
        25.00       25.00       25.00       25.00       25.00       25.00       25.00       25.00       25.00       25.00    
        25.00       25.00       25.00       25.00       25.00       25.00       25.00       25.00       25.00       25.00    
  33    25.00       25.00       25.00       25.00       25.00       25.00       25.00       25.00       25.00       25.00    
        25.00       25.00       25.00       25.00       25.00       25.00       25.00       25.00       25.00       25.00    
        25.00       25.00       25.00       25.00       25.00       25.00       25.00       25.00       25.00       25.00    
        25.00       25.00       25.00       25.00       25.00       25.00       25.00       25.00       25.00       25.00    
  34    25.00       25.00       25.00       25.00       25.00       25.00       25.00       25.00       25.00       25.00    
        25.00       25.00       25.00       25.00       25.00       25.00       25.00       25.00       25.00       25.00    
        25.00       25.00       25.00       25.00       25.00       25.00       25.00       25.00       25.00       25.00    
        25.00       25.00       25.00       25.00       25.00       25.00       25.00       25.00       25.00       25.00    
  35    25.00       25.00       25.00       25.00       25.00       25.00       25.00       25.00       25.00       25.00    
        25.00       25.00       25.00       25.00       25.00       25.00       25.00       25.00       25.00       25.00    
        25.00       25.00       25.00       25.00       25.00       25.00       25.00       25.00       25.00       25.00    
        25.00       25.00       25.00       25.00       25.00       25.00       25.00       25.00       25.00       25.00    
  36    25.00       25.00       25.00       25.00       25.00       25.00       25.00       25.00       25.00       25.00    
        25.00       25.00       25.00       25.00       25.00       25.00       25.00       25.00       25.00       25.00    
        25.00       25.00       25.00       25.00       25.00       25.00       25.00       25.00       25.00       25.00    
        25.00       25.00       25.00       25.00       25.00       25.00       25.00       25.00       25.00       25.00    
  37    25.00       25.00       25.00       25.00       25.00       25.00       25.00       25.00       25.00       25.00    
        25.00       25.00       25.00       25.00       25.00       25.00       25.00       25.00       25.00       25.00    
        25.00       25.00       25.00       25.00       25.00       25.00       25.00       25.00       25.00       25.00    
        25.00       25.00       25.00       25.00       25.00       25.00       25.00       25.00       25.00       25.00    
  38    25.00       25.00       25.00       25.00       25.00       25.00       25.00       25.00       25.00       25.00    
        25.00       25.00       25.00       25.00       25.00       25.00       25.00       25.00       25.00       25.00    
        25.00       25.00       25.00       25.00       25.00       25.00       25.00       25.00       25.00       25.00    
        25.00       25.00       25.00       25.00       25.00       25.00       25.00       25.00       25.00       25.00    
  39    25.00       25.00       25.00       25.00       25.00       25.00       25.00       25.00       25.00       25.00    
        25.00       25.00       25.00       25.00       25.00       25.00       25.00       25.00       25.00       25.00    
        25.00       25.00       25.00       25.00       25.00       25.00       25.00       25.00       25.00       25.00    
        25.00       25.00       25.00       25.00       25.00       25.00       25.00       25.00       25.00       25.00    
  40    25.00       25.00       25.00       25.00       25.00       25.00       25.00       25.00       25.00       25.00    
        25.00       25.00       25.00       25.00       25.00       25.00       25.00       25.00       25.00       25.00    
        25.00       25.00       25.00       25.00       25.00       25.00       25.00       25.00       25.00       25.00    
        25.00       25.00       25.00       25.00       25.00       25.00       25.00       25.00       25.00       25.00    

 HEAD WILL BE SAVED ON UNIT   51 AT END OF TIME STEP    2, STRESS PERIOD    2
1
  VOLUMETRIC BUDGET FOR ENTIRE MODEL AT END OF TIME STEP    2, STRESS PERIOD   2
  ------------------------------------------------------------------------------

     CUMULATIVE VOLUMES      L**3       RATES FOR THIS TIME STEP      L**3/T
     ------------------                 ------------------------

           IN:                                      IN:
           ---                                      ---
             STORAGE     =       8.9200E-02               STORAGE     =           0.0000
       CONSTANT HEAD     =       6.8556E-10         CONSTANT HEAD     =           0.0000
            RECHARGE     =     2212500.0000              RECHARGE     =        3125.0000

                TOTAL IN =     2212500.0000                  TOTAL IN =        3125.0000

          OUT:                                     OUT:
          ----                                     ----
             STORAGE     =     2212179.2500               STORAGE     =        3123.9612
       CONSTANT HEAD     =         324.4983         CONSTANT HEAD     =           1.0410
            RECHARGE     =           0.0000              RECHARGE     =           0.0000

               TOTAL OUT =     2212503.7500                 TOTAL OUT =        3125.0022

                IN - OUT =          -3.7500                  IN - OUT =      -2.1973E-03

     PERCENT DISCREPANCY =          -0.00         PERCENT DISCREPANCY =          -0.00






         TIME SUMMARY AT END OF TIME STEP    2 IN STRESS PERIOD    2
                    SECONDS     MINUTES      HOURS       DAYS        YEARS
                    -----------------------------------------------------------
   TIME STEP LENGTH 2.23776E+07 3.72960E+05  6216.0      259.00     0.70910    
 STRESS PERIOD TIME 4.47552E+07 7.45920E+05  12432.      518.00      1.4182    
         TOTAL TIME 6.11712E+07 1.01952E+06  16992.      708.00      1.9384    
1
1
                            STRESS PERIOD NO.    3, LENGTH =   1922.000    
                            -----------------------------------------------

                              NUMBER OF TIME STEPS =    17

                               MULTIPLIER FOR DELT =     1.000

                            INITIAL TIME STEP SIZE =   113.0588    

 REUSING RECH FROM LAST STRESS PERIOD
 
 SOLVING FOR HEAD 
                                                   Max.-Head-Change                        Max.-Flux-Residual
  Residual-Control   Outer-Iter.   Inner-Iter.     Column Row Layer    Max.-Head-Change    Column Row Layer    Max.-Flux-Residual            L2-New               L2-Old           Solver-Max-Delh
          0                 1           3             1    3     5       0.9712916363E+00       1    3    7       0.2839378861E+02      0.2079197939E+03      0.1514473122E-01      0.9712916363E+00
          0                 2           3             1    3     6      -0.1752811434E+00       1    3    6      -0.6515971784E+02      0.1448279584E+03      0.2079197939E+03     -0.1752811434E+00
          0                 3           2             3    1     6       0.9192625305E-02       1    3    6       0.4384230853E+01      0.1117710772E+02      0.1448279584E+03      0.9192625305E-02
          0                 4           1             1    2     6       0.5352309472E-03       1    2    6       0.2434656243E+00      0.5827590317E+00      0.1117710772E+02      0.5352309472E-03
          0                 5           1             1    2     6      -0.2348666029E-04       1    2    6      -0.9549067217E-02      0.1854836282E-01      0.5827590317E+00     -0.2348666029E-04

    ------------------------------------------------
       NWT REQUIRED            5 OUTER ITERATIONS 
       AND A TOTAL OF         10 INNER ITERATIONS.
    ------------------------------------------------

 OUTPUT CONTROL FOR STRESS PERIOD    3   TIME STEP    1
    SAVE BUDGET
    PRINT HEAD FOR ALL LAYERS
    SAVE HEAD FOR ALL LAYERS
 UBDSV1 SAVING "         STORAGE" ON UNIT  32 AT TIME STEP 1, STRESS PERIOD 3
 UBDSV2 SAVING "   CONSTANT HEAD" ON UNIT  32 AT TIME STEP 1, STRESS PERIOD 3
 UBDSV1 SAVING "FLOW RIGHT FACE " ON UNIT  32 AT TIME STEP 1, STRESS PERIOD 3
 UBDSV1 SAVING "FLOW FRONT FACE " ON UNIT  32 AT TIME STEP 1, STRESS PERIOD 3
 UBDSV1 SAVING "FLOW LOWER FACE " ON UNIT  32 AT TIME STEP 1, STRESS PERIOD 3
 UBDSV3 SAVING "        RECHARGE" ON UNIT  32 AT TIME STEP 1, STRESS PERIOD 3
1
              HEAD IN LAYER 1 AT END OF TIME STEP 1 IN STRESS PERIOD 3
  ---------------------------------------------------------------------------

            1           2           3           4           5           6           7           8           9          10
           11          12          13          14          15          16          17          18          19          20
           21          22          23          24          25          26          27          28          29          30
           31          32          33          34          35          36          37          38          39          40
 ........................................................................................................................
   1   -99.90      -99.90      -99.90      -99.90      -99.90      -99.90      -99.90      -99.90      -99.90      -99.90    
       -99.90      -99.90      -99.90      -99.90      -99.90      -99.90      -99.90      -99.90      -99.90      -99.90    
       -99.90      -99.90      -99.90      -99.90      -99.90      -99.90      -99.90      -99.90      -99.90      -99.90    
       -99.90      -99.90      -99.90      -99.90      -99.90      -99.90      -99.90      -99.90      -99.90      -99.90    
   2   -99.90      -99.90      -99.90      -99.90      -99.90      -99.90      -99.90      -99.90      -99.90      -99.90    
       -99.90      -99.90      -99.90      -99.90      -99.90      -99.90      -99.90      -99.90      -99.90      -99.90    
       -99.90      -99.90      -99.90      -99.90      -99.90      -99.90      -99.90      -99.90      -99.90      -99.90    
       -99.90      -99.90      -99.90      -99.90      -99.90      -99.90      -99.90      -99.90      -99.90      -99.90    
   3   -99.90      -99.90      -99.90      -99.90      -99.90      -99.90      -99.90      -99.90      -99.90      -99.90    
       -99.90      -99.90      -99.90      -99.90      -99.90      -99.90      -99.90      -99.90      -99.90      -99.90    
       -99.90      -99.90      -99.90      -99.90      -99.90      -99.90      -99.90      -99.90      -99.90      -99.90    
       -99.90      -99.90      -99.90      -99.90      -99.90      -99.90      -99.90      -99.90      -99.90      -99.90    
   4   -99.90      -99.90      -99.90      -99.90      -99.90      -99.90      -99.90      -99.90      -99.90      -99.90    
       -99.90      -99.90      -99.90      -99.90      -99.90      -99.90      -99.90      -99.90      -99.90      -99.90    
       -99.90      -99.90      -99.90      -99.90      -99.90      -99.90      -99.90      -99.90      -99.90      -99.90    
       -99.90      -99.90      -99.90      -99.90      -99.90      -99.90      -99.90      -99.90      -99.90      -99.90    
   5   -99.90      -99.90      -99.90      -99.90      -99.90      -99.90      -99.90      -99.90      -99.90      -99.90    
       -99.90      -99.90      -99.90      -99.90      -99.90      -99.90      -99.90      -99.90      -99.90      -99.90    
       -99.90      -99.90      -99.90      -99.90      -99.90      -99.90      -99.90      -99.90      -99.90      -99.90    
       -99.90      -99.90      -99.90      -99.90      -99.90      -99.90      -99.90      -99.90      -99.90      -99.90    
   6   -99.90      -99.90      -99.90      -99.90      -99.90      -99.90      -99.90      -99.90      -99.90      -99.90    
       -99.90      -99.90      -99.90      -99.90      -99.90      -99.90      -99.90      -99.90      -99.90      -99.90    
       -99.90      -99.90      -99.90      -99.90      -99.90      -99.90      -99.90      -99.90      -99.90      -99.90    
       -99.90      -99.90      -99.90      -99.90      -99.90      -99.90      -99.90      -99.90      -99.90      -99.90    
   7   -99.90      -99.90      -99.90      -99.90      -99.90      -99.90      -99.90      -99.90      -99.90      -99.90    
       -99.90      -99.90      -99.90      -99.90      -99.90      -99.90      -99.90      -99.90      -99.90      -99.90    
       -99.90      -99.90      -99.90      -99.90      -99.90      -99.90      -99.90      -99.90      -99.90      -99.90    
       -99.90      -99.90      -99.90      -99.90      -99.90      -99.90      -99.90      -99.90      -99.90      -99.90    
   8   -99.90      -99.90      -99.90      -99.90      -99.90      -99.90      -99.90      -99.90      -99.90      -99.90    
       -99.90      -99.90      -99.90      -99.90      -99.90      -99.90      -99.90      -99.90      -99.90      -99.90    
       -99.90      -99.90      -99.90      -99.90      -99.90      -99.90      -99.90      -99.90      -99.90      -99.90    
       -99.90      -99.90      -99.90      -99.90      -99.90      -99.90      -99.90      -99.90      -99.90      -99.90    
   9   -99.90      -99.90      -99.90      -99.90      -99.90      -99.90      -99.90      -99.90      -99.90      -99.90    
       -99.90      -99.90      -99.90      -99.90      -99.90      -99.90      -99.90      -99.90      -99.90      -99.90    
       -99.90      -99.90      -99.90      -99.90      -99.90      -99.90      -99.90      -99.90      -99.90      -99.90    
       -99.90      -99.90      -99.90      -99.90      -99.90      -99.90      -99.90      -99.90      -99.90      -99.90    
  10   -99.90      -99.90      -99.90      -99.90      -99.90      -99.90      -99.90      -99.90      -99.90      -99.90    
       -99.90      -99.90      -99.90      -99.90      -99.90      -99.90      -99.90      -99.90      -99.90      -99.90    
       -99.90      -99.90      -99.90      -99.90      -99.90      -99.90      -99.90      -99.90      -99.90      -99.90    
       -99.90      -99.90      -99.90      -99.90      -99.90      -99.90      -99.90      -99.90      -99.90      -99.90    
  11   -99.90      -99.90      -99.90      -99.90      -99.90      -99.90      -99.90      -99.90      -99.90      -99.90    
       -99.90      -99.90      -99.90      -99.90      -99.90      -99.90      -99.90      -99.90      -99.90      -99.90    
       -99.90      -99.90      -99.90      -99.90      -99.90      -99.90      -99.90      -99.90      -99.90      -99.90    
       -99.90      -99.90      -99.90      -99.90      -99.90      -99.90      -99.90      -99.90      -99.90      -99.90    
  12   -99.90      -99.90      -99.90      -99.90      -99.90      -99.90      -99.90      -99.90      -99.90      -99.90    
       -99.90      -99.90      -99.90      -99.90      -99.90      -99.90      -99.90      -99.90      -99.90      -99.90    
       -99.90      -99.90      -99.90      -99.90      -99.90      -99.90      -99.90      -99.90      -99.90      -99.90    
       -99.90      -99.90      -99.90      -99.90      -99.90      -99.90      -99.90      -99.90      -99.90      -99.90    
  13   -99.90      -99.90      -99.90      -99.90      -99.90      -99.90      -99.90      -99.90      -99.90      -99.90    
       -99.90      -99.90      -99.90      -99.90      -99.90      -99.90      -99.90      -99.90      -99.90      -99.90    
       -99.90      -99.90      -99.90      -99.90      -99.90      -99.90      -99.90      -99.90      -99.90      -99.90    
       -99.90      -99.90      -99.90      -99.90      -99.90      -99.90      -99.90      -99.90      -99.90      -99.90    
  14   -99.90      -99.90      -99.90      -99.90      -99.90      -99.90      -99.90      -99.90      -99.90      -99.90    
       -99.90      -99.90      -99.90      -99.90      -99.90      -99.90      -99.90      -99.90      -99.90      -99.90    
       -99.90      -99.90      -99.90      -99.90      -99.90      -99.90      -99.90      -99.90      -99.90      -99.90    
       -99.90      -99.90      -99.90      -99.90      -99.90      -99.90      -99.90      -99.90      -99.90      -99.90    
  15   -99.90      -99.90      -99.90      -99.90      -99.90      -99.90      -99.90      -99.90      -99.90      -99.90    
       -99.90      -99.90      -99.90      -99.90      -99.90      -99.90      -99.90      -99.90      -99.90      -99.90    
       -99.90      -99.90      -99.90      -99.90      -99.90      -99.90      -99.90      -99.90      -99.90      -99.90    
       -99.90      -99.90      -99.90      -99.90      -99.90      -99.90      -99.90      -99.90      -99.90      -99.90    
  16   -99.90      -99.90      -99.90      -99.90      -99.90      -99.90      -99.90      -99.90      -99.90      -99.90    
       -99.90      -99.90      -99.90      -99.90      -99.90      -99.90      -99.90      -99.90      -99.90      -99.90    
       -99.90      -99.90      -99.90      -99.90      -99.90      -99.90      -99.90      -99.90      -99.90      -99.90    
       -99.90      -99.90      -99.90      -99.90      -99.90      -99.90      -99.90      -99.90      -99.90      -99.90    
  17   -99.90      -99.90      -99.90      -99.90      -99.90      -99.90      -99.90      -99.90      -99.90      -99.90    
       -99.90      -99.90      -99.90      -99.90      -99.90      -99.90      -99.90      -99.90      -99.90      -99.90    
       -99.90      -99.90      -99.90      -99.90      -99.90      -99.90      -99.90      -99.90      -99.90      -99.90    
       -99.90      -99.90      -99.90      -99.90      -99.90      -99.90      -99.90      -99.90      -99.90      -99.90    
  18   -99.90      -99.90      -99.90      -99.90      -99.90      -99.90      -99.90      -99.90      -99.90      -99.90    
       -99.90      -99.90      -99.90      -99.90      -99.90      -99.90      -99.90      -99.90      -99.90      -99.90    
       -99.90      -99.90      -99.90      -99.90      -99.90      -99.90      -99.90      -99.90      -99.90      -99.90    
       -99.90      -99.90      -99.90      -99.90      -99.90      -99.90      -99.90      -99.90      -99.90      -99.90    
  19   -99.90      -99.90      -99.90      -99.90      -99.90      -99.90      -99.90      -99.90      -99.90      -99.90    
       -99.90      -99.90      -99.90      -99.90      -99.90      -99.90      -99.90      -99.90      -99.90      -99.90    
       -99.90      -99.90      -99.90      -99.90      -99.90      -99.90      -99.90      -99.90      -99.90      -99.90    
       -99.90      -99.90      -99.90      -99.90      -99.90      -99.90      -99.90      -99.90      -99.90      -99.90    
  20   -99.90      -99.90      -99.90      -99.90      -99.90      -99.90      -99.90      -99.90      -99.90      -99.90    
       -99.90      -99.90      -99.90      -99.90      -99.90      -99.90      -99.90      -99.90      -99.90      -99.90    
       -99.90      -99.90      -99.90      -99.90      -99.90      -99.90      -99.90      -99.90      -99.90      -99.90    
       -99.90      -99.90      -99.90      -99.90      -99.90      -99.90      -99.90      -99.90      -99.90      -99.90    
  21   -99.90      -99.90      -99.90      -99.90      -99.90      -99.90      -99.90      -99.90      -99.90      -99.90    
       -99.90      -99.90      -99.90      -99.90      -99.90      -99.90      -99.90      -99.90      -99.90      -99.90    
       -99.90      -99.90      -99.90      -99.90      -99.90      -99.90      -99.90      -99.90      -99.90      -99.90    
       -99.90      -99.90      -99.90      -99.90      -99.90      -99.90      -99.90      -99.90      -99.90      -99.90    
  22   -99.90      -99.90      -99.90      -99.90      -99.90      -99.90      -99.90      -99.90      -99.90      -99.90    
       -99.90      -99.90      -99.90      -99.90      -99.90      -99.90      -99.90      -99.90      -99.90      -99.90    
       -99.90      -99.90      -99.90      -99.90      -99.90      -99.90      -99.90      -99.90      -99.90      -99.90    
       -99.90      -99.90      -99.90      -99.90      -99.90      -99.90      -99.90      -99.90      -99.90      -99.90    
  23   -99.90      -99.90      -99.90      -99.90      -99.90      -99.90      -99.90      -99.90      -99.90      -99.90    
       -99.90      -99.90      -99.90      -99.90      -99.90      -99.90      -99.90      -99.90      -99.90      -99.90    
       -99.90      -99.90      -99.90      -99.90      -99.90      -99.90      -99.90      -99.90      -99.90      -99.90    
       -99.90      -99.90      -99.90      -99.90      -99.90      -99.90      -99.90      -99.90      -99.90      -99.90    
  24   -99.90      -99.90      -99.90      -99.90      -99.90      -99.90      -99.90      -99.90      -99.90      -99.90    
       -99.90      -99.90      -99.90      -99.90      -99.90      -99.90      -99.90      -99.90      -99.90      -99.90    
       -99.90      -99.90      -99.90      -99.90      -99.90      -99.90      -99.90      -99.90      -99.90      -99.90    
       -99.90      -99.90      -99.90      -99.90      -99.90      -99.90      -99.90      -99.90      -99.90      -99.90    
  25   -99.90      -99.90      -99.90      -99.90      -99.90      -99.90      -99.90      -99.90      -99.90      -99.90    
       -99.90      -99.90      -99.90      -99.90      -99.90      -99.90      -99.90      -99.90      -99.90      -99.90    
       -99.90      -99.90      -99.90      -99.90      -99.90      -99.90      -99.90      -99.90      -99.90      -99.90    
       -99.90      -99.90      -99.90      -99.90      -99.90      -99.90      -99.90      -99.90      -99.90      -99.90    
  26   -99.90      -99.90      -99.90      -99.90      -99.90      -99.90      -99.90      -99.90      -99.90      -99.90    
       -99.90      -99.90      -99.90      -99.90      -99.90      -99.90      -99.90      -99.90      -99.90      -99.90    
       -99.90      -99.90      -99.90      -99.90      -99.90      -99.90      -99.90      -99.90      -99.90      -99.90    
       -99.90      -99.90      -99.90      -99.90      -99.90      -99.90      -99.90      -99.90      -99.90      -99.90    
  27   -99.90      -99.90      -99.90      -99.90      -99.90      -99.90      -99.90      -99.90      -99.90      -99.90    
       -99.90      -99.90      -99.90      -99.90      -99.90      -99.90      -99.90      -99.90      -99.90      -99.90    
       -99.90      -99.90      -99.90      -99.90      -99.90      -99.90      -99.90      -99.90      -99.90      -99.90    
       -99.90      -99.90      -99.90      -99.90      -99.90      -99.90      -99.90      -99.90      -99.90      -99.90    
  28   -99.90      -99.90      -99.90      -99.90      -99.90      -99.90      -99.90      -99.90      -99.90      -99.90    
       -99.90      -99.90      -99.90      -99.90      -99.90      -99.90      -99.90      -99.90      -99.90      -99.90    
       -99.90      -99.90      -99.90      -99.90      -99.90      -99.90      -99.90      -99.90      -99.90      -99.90    
       -99.90      -99.90      -99.90      -99.90      -99.90      -99.90      -99.90      -99.90      -99.90      -99.90    
  29   -99.90      -99.90      -99.90      -99.90      -99.90      -99.90      -99.90      -99.90      -99.90      -99.90    
       -99.90      -99.90      -99.90      -99.90      -99.90      -99.90      -99.90      -99.90      -99.90      -99.90    
       -99.90      -99.90      -99.90      -99.90      -99.90      -99.90      -99.90      -99.90      -99.90      -99.90    
       -99.90      -99.90      -99.90      -99.90      -99.90      -99.90      -99.90      -99.90      -99.90      -99.90    
  30   -99.90      -99.90      -99.90      -99.90      -99.90      -99.90      -99.90      -99.90      -99.90      -99.90    
       -99.90      -99.90      -99.90      -99.90      -99.90      -99.90      -99.90      -99.90      -99.90      -99.90    
       -99.90      -99.90      -99.90      -99.90      -99.90      -99.90      -99.90      -99.90      -99.90      -99.90    
       -99.90      -99.90      -99.90      -99.90      -99.90      -99.90      -99.90      -99.90      -99.90      -99.90    
  31   -99.90      -99.90      -99.90      -99.90      -99.90      -99.90      -99.90      -99.90      -99.90      -99.90    
       -99.90      -99.90      -99.90      -99.90      -99.90      -99.90      -99.90      -99.90      -99.90      -99.90    
       -99.90      -99.90      -99.90      -99.90      -99.90      -99.90      -99.90      -99.90      -99.90      -99.90    
       -99.90      -99.90      -99.90      -99.90      -99.90      -99.90      -99.90      -99.90      -99.90      -99.90    
  32   -99.90      -99.90      -99.90      -99.90      -99.90      -99.90      -99.90      -99.90      -99.90      -99.90    
       -99.90      -99.90      -99.90      -99.90      -99.90      -99.90      -99.90      -99.90      -99.90      -99.90    
       -99.90      -99.90      -99.90      -99.90      -99.90      -99.90      -99.90      -99.90      -99.90      -99.90    
       -99.90      -99.90      -99.90      -99.90      -99.90      -99.90      -99.90      -99.90      -99.90      -99.90    
  33   -99.90      -99.90      -99.90      -99.90      -99.90      -99.90      -99.90      -99.90      -99.90      -99.90    
       -99.90      -99.90      -99.90      -99.90      -99.90      -99.90      -99.90      -99.90      -99.90      -99.90    
       -99.90      -99.90      -99.90      -99.90      -99.90      -99.90      -99.90      -99.90      -99.90      -99.90    
       -99.90      -99.90      -99.90      -99.90      -99.90      -99.90      -99.90      -99.90      -99.90      -99.90    
  34   -99.90      -99.90      -99.90      -99.90      -99.90      -99.90      -99.90      -99.90      -99.90      -99.90    
       -99.90      -99.90      -99.90      -99.90      -99.90      -99.90      -99.90      -99.90      -99.90      -99.90    
       -99.90      -99.90      -99.90      -99.90      -99.90      -99.90      -99.90      -99.90      -99.90      -99.90    
       -99.90      -99.90      -99.90      -99.90      -99.90      -99.90      -99.90      -99.90      -99.90      -99.90    
  35   -99.90      -99.90      -99.90      -99.90      -99.90      -99.90      -99.90      -99.90      -99.90      -99.90    
       -99.90      -99.90      -99.90      -99.90      -99.90      -99.90      -99.90      -99.90      -99.90      -99.90    
       -99.90      -99.90      -99.90      -99.90      -99.90      -99.90      -99.90      -99.90      -99.90      -99.90    
       -99.90      -99.90      -99.90      -99.90      -99.90      -99.90      -99.90      -99.90      -99.90      -99.90    
  36   -99.90      -99.90      -99.90      -99.90      -99.90      -99.90      -99.90      -99.90      -99.90      -99.90    
       -99.90      -99.90      -99.90      -99.90      -99.90      -99.90      -99.90      -99.90      -99.90      -99.90    
       -99.90      -99.90      -99.90      -99.90      -99.90      -99.90      -99.90      -99.90      -99.90      -99.90    
       -99.90      -99.90      -99.90      -99.90      -99.90      -99.90      -99.90      -99.90      -99.90      -99.90    
  37   -99.90      -99.90      -99.90      -99.90      -99.90      -99.90      -99.90      -99.90      -99.90      -99.90    
       -99.90      -99.90      -99.90      -99.90      -99.90      -99.90      -99.90      -99.90      -99.90      -99.90    
       -99.90      -99.90      -99.90      -99.90      -99.90      -99.90      -99.90      -99.90      -99.90      -99.90    
       -99.90      -99.90      -99.90      -99.90      -99.90      -99.90      -99.90      -99.90      -99.90      -99.90    
  38   -99.90      -99.90      -99.90      -99.90      -99.90      -99.90      -99.90      -99.90      -99.90      -99.90    
       -99.90      -99.90      -99.90      -99.90      -99.90      -99.90      -99.90      -99.90      -99.90      -99.90    
       -99.90      -99.90      -99.90      -99.90      -99.90      -99.90      -99.90      -99.90      -99.90      -99.90    
       -99.90      -99.90      -99.90      -99.90      -99.90      -99.90      -99.90      -99.90      -99.90      -99.90    
  39   -99.90      -99.90      -99.90      -99.90      -99.90      -99.90      -99.90      -99.90      -99.90      -99.90    
       -99.90      -99.90      -99.90      -99.90      -99.90      -99.90      -99.90      -99.90      -99.90      -99.90    
       -99.90      -99.90      -99.90      -99.90      -99.90      -99.90      -99.90      -99.90      -99.90      -99.90    
       -99.90      -99.90      -99.90      -99.90      -99.90      -99.90      -99.90      -99.90      -99.90      -99.90    
  40   -99.90      -99.90      -99.90      -99.90      -99.90      -99.90      -99.90      -99.90      -99.90      -99.90    
       -99.90      -99.90      -99.90      -99.90      -99.90      -99.90      -99.90      -99.90      -99.90      -99.90    
       -99.90      -99.90      -99.90      -99.90      -99.90      -99.90      -99.90      -99.90      -99.90      -99.90    
       -99.90      -99.90      -99.90      -99.90      -99.90      -99.90      -99.90      -99.90      -99.90      -99.90    
1
              HEAD IN LAYER 2 AT END OF TIME STEP 1 IN STRESS PERIOD 3
  ---------------------------------------------------------------------------

            1           2           3           4           5           6           7           8           9          10
           11          12          13          14          15          16          17          18          19          20
           21          22          23          24          25          26          27          28          29          30
           31          32          33          34          35          36          37          38          39          40
 ........................................................................................................................
   1   -99.90      -99.90      -99.90      -99.90      -99.90      -99.90      -99.90      -99.90      -99.90      -99.90    
       -99.90      -99.90      -99.90      -99.90      -99.90      -99.90      -99.90      -99.90      -99.90      -99.90    
       -99.90      -99.90      -99.90      -99.90      -99.90      -99.90      -99.90      -99.90      -99.90      -99.90    
       -99.90      -99.90      -99.90      -99.90      -99.90      -99.90      -99.90      -99.90      -99.90      -99.90    
   2   -99.90      -99.90      -99.90      -99.90      -99.90      -99.90      -99.90      -99.90      -99.90      -99.90    
       -99.90      -99.90      -99.90      -99.90      -99.90      -99.90      -99.90      -99.90      -99.90      -99.90    
       -99.90      -99.90      -99.90      -99.90      -99.90      -99.90      -99.90      -99.90      -99.90      -99.90    
       -99.90      -99.90      -99.90      -99.90      -99.90      -99.90      -99.90      -99.90      -99.90      -99.90    
   3   -99.90      -99.90      -99.90      -99.90      -99.90      -99.90      -99.90      -99.90      -99.90      -99.90    
       -99.90      -99.90      -99.90      -99.90      -99.90      -99.90      -99.90      -99.90      -99.90      -99.90    
       -99.90      -99.90      -99.90      -99.90      -99.90      -99.90      -99.90      -99.90      -99.90      -99.90    
       -99.90      -99.90      -99.90      -99.90      -99.90      -99.90      -99.90      -99.90      -99.90      -99.90    
   4   -99.90      -99.90      -99.90      -99.90      -99.90      -99.90      -99.90      -99.90      -99.90      -99.90    
       -99.90      -99.90      -99.90      -99.90      -99.90      -99.90      -99.90      -99.90      -99.90      -99.90    
       -99.90      -99.90      -99.90      -99.90      -99.90      -99.90      -99.90      -99.90      -99.90      -99.90    
       -99.90      -99.90      -99.90      -99.90      -99.90      -99.90      -99.90      -99.90      -99.90      -99.90    
   5   -99.90      -99.90      -99.90      -99.90      -99.90      -99.90      -99.90      -99.90      -99.90      -99.90    
       -99.90      -99.90      -99.90      -99.90      -99.90      -99.90      -99.90      -99.90      -99.90      -99.90    
       -99.90      -99.90      -99.90      -99.90      -99.90      -99.90      -99.90      -99.90      -99.90      -99.90    
       -99.90      -99.90      -99.90      -99.90      -99.90      -99.90      -99.90      -99.90      -99.90      -99.90    
   6   -99.90      -99.90      -99.90      -99.90      -99.90      -99.90      -99.90      -99.90      -99.90      -99.90    
       -99.90      -99.90      -99.90      -99.90      -99.90      -99.90      -99.90      -99.90      -99.90      -99.90    
       -99.90      -99.90      -99.90      -99.90      -99.90      -99.90      -99.90      -99.90      -99.90      -99.90    
       -99.90      -99.90      -99.90      -99.90      -99.90      -99.90      -99.90      -99.90      -99.90      -99.90    
   7   -99.90      -99.90      -99.90      -99.90      -99.90      -99.90      -99.90      -99.90      -99.90      -99.90    
       -99.90      -99.90      -99.90      -99.90      -99.90      -99.90      -99.90      -99.90      -99.90      -99.90    
       -99.90      -99.90      -99.90      -99.90      -99.90      -99.90      -99.90      -99.90      -99.90      -99.90    
       -99.90      -99.90      -99.90      -99.90      -99.90      -99.90      -99.90      -99.90      -99.90      -99.90    
   8   -99.90      -99.90      -99.90      -99.90      -99.90      -99.90      -99.90      -99.90      -99.90      -99.90    
       -99.90      -99.90      -99.90      -99.90      -99.90      -99.90      -99.90      -99.90      -99.90      -99.90    
       -99.90      -99.90      -99.90      -99.90      -99.90      -99.90      -99.90      -99.90      -99.90      -99.90    
       -99.90      -99.90      -99.90      -99.90      -99.90      -99.90      -99.90      -99.90      -99.90      -99.90    
   9   -99.90      -99.90      -99.90      -99.90      -99.90      -99.90      -99.90      -99.90      -99.90      -99.90    
       -99.90      -99.90      -99.90      -99.90      -99.90      -99.90      -99.90      -99.90      -99.90      -99.90    
       -99.90      -99.90      -99.90      -99.90      -99.90      -99.90      -99.90      -99.90      -99.90      -99.90    
       -99.90      -99.90      -99.90      -99.90      -99.90      -99.90      -99.90      -99.90      -99.90      -99.90    
  10   -99.90      -99.90      -99.90      -99.90      -99.90      -99.90      -99.90      -99.90      -99.90      -99.90    
       -99.90      -99.90      -99.90      -99.90      -99.90      -99.90      -99.90      -99.90      -99.90      -99.90    
       -99.90      -99.90      -99.90      -99.90      -99.90      -99.90      -99.90      -99.90      -99.90      -99.90    
       -99.90      -99.90      -99.90      -99.90      -99.90      -99.90      -99.90      -99.90      -99.90      -99.90    
  11   -99.90      -99.90      -99.90      -99.90      -99.90      -99.90      -99.90      -99.90      -99.90      -99.90    
       -99.90      -99.90      -99.90      -99.90      -99.90      -99.90      -99.90      -99.90      -99.90      -99.90    
       -99.90      -99.90      -99.90      -99.90      -99.90      -99.90      -99.90      -99.90      -99.90      -99.90    
       -99.90      -99.90      -99.90      -99.90      -99.90      -99.90      -99.90      -99.90      -99.90      -99.90    
  12   -99.90      -99.90      -99.90      -99.90      -99.90      -99.90      -99.90      -99.90      -99.90      -99.90    
       -99.90      -99.90      -99.90      -99.90      -99.90      -99.90      -99.90      -99.90      -99.90      -99.90    
       -99.90      -99.90      -99.90      -99.90      -99.90      -99.90      -99.90      -99.90      -99.90      -99.90    
       -99.90      -99.90      -99.90      -99.90      -99.90      -99.90      -99.90      -99.90      -99.90      -99.90    
  13   -99.90      -99.90      -99.90      -99.90      -99.90      -99.90      -99.90      -99.90      -99.90      -99.90    
       -99.90      -99.90      -99.90      -99.90      -99.90      -99.90      -99.90      -99.90      -99.90      -99.90    
       -99.90      -99.90      -99.90      -99.90      -99.90      -99.90      -99.90      -99.90      -99.90      -99.90    
       -99.90      -99.90      -99.90      -99.90      -99.90      -99.90      -99.90      -99.90      -99.90      -99.90    
  14   -99.90      -99.90      -99.90      -99.90      -99.90      -99.90      -99.90      -99.90      -99.90      -99.90    
       -99.90      -99.90      -99.90      -99.90      -99.90      -99.90      -99.90      -99.90      -99.90      -99.90    
       -99.90      -99.90      -99.90      -99.90      -99.90      -99.90      -99.90      -99.90      -99.90      -99.90    
       -99.90      -99.90      -99.90      -99.90      -99.90      -99.90      -99.90      -99.90      -99.90      -99.90    
  15   -99.90      -99.90      -99.90      -99.90      -99.90      -99.90      -99.90      -99.90      -99.90      -99.90    
       -99.90      -99.90      -99.90      -99.90      -99.90      -99.90      -99.90      -99.90      -99.90      -99.90    
       -99.90      -99.90      -99.90      -99.90      -99.90      -99.90      -99.90      -99.90      -99.90      -99.90    
       -99.90      -99.90      -99.90      -99.90      -99.90      -99.90      -99.90      -99.90      -99.90      -99.90    
  16   -99.90      -99.90      -99.90      -99.90      -99.90      -99.90      -99.90      -99.90      -99.90      -99.90    
       -99.90      -99.90      -99.90      -99.90      -99.90      -99.90      -99.90      -99.90      -99.90      -99.90    
       -99.90      -99.90      -99.90      -99.90      -99.90      -99.90      -99.90      -99.90      -99.90      -99.90    
       -99.90      -99.90      -99.90      -99.90      -99.90      -99.90      -99.90      -99.90      -99.90      -99.90    
  17   -99.90      -99.90      -99.90      -99.90      -99.90      -99.90      -99.90      -99.90      -99.90      -99.90    
       -99.90      -99.90      -99.90      -99.90      -99.90      -99.90      -99.90      -99.90      -99.90      -99.90    
       -99.90      -99.90      -99.90      -99.90      -99.90      -99.90      -99.90      -99.90      -99.90      -99.90    
       -99.90      -99.90      -99.90      -99.90      -99.90      -99.90      -99.90      -99.90      -99.90      -99.90    
  18   -99.90      -99.90      -99.90      -99.90      -99.90      -99.90      -99.90      -99.90      -99.90      -99.90    
       -99.90      -99.90      -99.90      -99.90      -99.90      -99.90      -99.90      -99.90      -99.90      -99.90    
       -99.90      -99.90      -99.90      -99.90      -99.90      -99.90      -99.90      -99.90      -99.90      -99.90    
       -99.90      -99.90      -99.90      -99.90      -99.90      -99.90      -99.90      -99.90      -99.90      -99.90    
  19   -99.90      -99.90      -99.90      -99.90      -99.90      -99.90      -99.90      -99.90      -99.90      -99.90    
       -99.90      -99.90      -99.90      -99.90      -99.90      -99.90      -99.90      -99.90      -99.90      -99.90    
       -99.90      -99.90      -99.90      -99.90      -99.90      -99.90      -99.90      -99.90      -99.90      -99.90    
       -99.90      -99.90      -99.90      -99.90      -99.90      -99.90      -99.90      -99.90      -99.90      -99.90    
  20   -99.90      -99.90      -99.90      -99.90      -99.90      -99.90      -99.90      -99.90      -99.90      -99.90    
       -99.90      -99.90      -99.90      -99.90      -99.90      -99.90      -99.90      -99.90      -99.90      -99.90    
       -99.90      -99.90      -99.90      -99.90      -99.90      -99.90      -99.90      -99.90      -99.90      -99.90    
       -99.90      -99.90      -99.90      -99.90      -99.90      -99.90      -99.90      -99.90      -99.90      -99.90    
  21   -99.90      -99.90      -99.90      -99.90      -99.90      -99.90      -99.90      -99.90      -99.90      -99.90    
       -99.90      -99.90      -99.90      -99.90      -99.90      -99.90      -99.90      -99.90      -99.90      -99.90    
       -99.90      -99.90      -99.90      -99.90      -99.90      -99.90      -99.90      -99.90      -99.90      -99.90    
       -99.90      -99.90      -99.90      -99.90      -99.90      -99.90      -99.90      -99.90      -99.90      -99.90    
  22   -99.90      -99.90      -99.90      -99.90      -99.90      -99.90      -99.90      -99.90      -99.90      -99.90    
       -99.90      -99.90      -99.90      -99.90      -99.90      -99.90      -99.90      -99.90      -99.90      -99.90    
       -99.90      -99.90      -99.90      -99.90      -99.90      -99.90      -99.90      -99.90      -99.90      -99.90    
       -99.90      -99.90      -99.90      -99.90      -99.90      -99.90      -99.90      -99.90      -99.90      -99.90    
  23   -99.90      -99.90      -99.90      -99.90      -99.90      -99.90      -99.90      -99.90      -99.90      -99.90    
       -99.90      -99.90      -99.90      -99.90      -99.90      -99.90      -99.90      -99.90      -99.90      -99.90    
       -99.90      -99.90      -99.90      -99.90      -99.90      -99.90      -99.90      -99.90      -99.90      -99.90    
       -99.90      -99.90      -99.90      -99.90      -99.90      -99.90      -99.90      -99.90      -99.90      -99.90    
  24   -99.90      -99.90      -99.90      -99.90      -99.90      -99.90      -99.90      -99.90      -99.90      -99.90    
       -99.90      -99.90      -99.90      -99.90      -99.90      -99.90      -99.90      -99.90      -99.90      -99.90    
       -99.90      -99.90      -99.90      -99.90      -99.90      -99.90      -99.90      -99.90      -99.90      -99.90    
       -99.90      -99.90      -99.90      -99.90      -99.90      -99.90      -99.90      -99.90      -99.90      -99.90    
  25   -99.90      -99.90      -99.90      -99.90      -99.90      -99.90      -99.90      -99.90      -99.90      -99.90    
       -99.90      -99.90      -99.90      -99.90      -99.90      -99.90      -99.90      -99.90      -99.90      -99.90    
       -99.90      -99.90      -99.90      -99.90      -99.90      -99.90      -99.90      -99.90      -99.90      -99.90    
       -99.90      -99.90      -99.90      -99.90      -99.90      -99.90      -99.90      -99.90      -99.90      -99.90    
  26   -99.90      -99.90      -99.90      -99.90      -99.90      -99.90      -99.90      -99.90      -99.90      -99.90    
       -99.90      -99.90      -99.90      -99.90      -99.90      -99.90      -99.90      -99.90      -99.90      -99.90    
       -99.90      -99.90      -99.90      -99.90      -99.90      -99.90      -99.90      -99.90      -99.90      -99.90    
       -99.90      -99.90      -99.90      -99.90      -99.90      -99.90      -99.90      -99.90      -99.90      -99.90    
  27   -99.90      -99.90      -99.90      -99.90      -99.90      -99.90      -99.90      -99.90      -99.90      -99.90    
       -99.90      -99.90      -99.90      -99.90      -99.90      -99.90      -99.90      -99.90      -99.90      -99.90    
       -99.90      -99.90      -99.90      -99.90      -99.90      -99.90      -99.90      -99.90      -99.90      -99.90    
       -99.90      -99.90      -99.90      -99.90      -99.90      -99.90      -99.90      -99.90      -99.90      -99.90    
  28   -99.90      -99.90      -99.90      -99.90      -99.90      -99.90      -99.90      -99.90      -99.90      -99.90    
       -99.90      -99.90      -99.90      -99.90      -99.90      -99.90      -99.90      -99.90      -99.90      -99.90    
       -99.90      -99.90      -99.90      -99.90      -99.90      -99.90      -99.90      -99.90      -99.90      -99.90    
       -99.90      -99.90      -99.90      -99.90      -99.90      -99.90      -99.90      -99.90      -99.90      -99.90    
  29   -99.90      -99.90      -99.90      -99.90      -99.90      -99.90      -99.90      -99.90      -99.90      -99.90    
       -99.90      -99.90      -99.90      -99.90      -99.90      -99.90      -99.90      -99.90      -99.90      -99.90    
       -99.90      -99.90      -99.90      -99.90      -99.90      -99.90      -99.90      -99.90      -99.90      -99.90    
       -99.90      -99.90      -99.90      -99.90      -99.90      -99.90      -99.90      -99.90      -99.90      -99.90    
  30   -99.90      -99.90      -99.90      -99.90      -99.90      -99.90      -99.90      -99.90      -99.90      -99.90    
       -99.90      -99.90      -99.90      -99.90      -99.90      -99.90      -99.90      -99.90      -99.90      -99.90    
       -99.90      -99.90      -99.90      -99.90      -99.90      -99.90      -99.90      -99.90      -99.90      -99.90    
       -99.90      -99.90      -99.90      -99.90      -99.90      -99.90      -99.90      -99.90      -99.90      -99.90    
  31   -99.90      -99.90      -99.90      -99.90      -99.90      -99.90      -99.90      -99.90      -99.90      -99.90    
       -99.90      -99.90      -99.90      -99.90      -99.90      -99.90      -99.90      -99.90      -99.90      -99.90    
       -99.90      -99.90      -99.90      -99.90      -99.90      -99.90      -99.90      -99.90      -99.90      -99.90    
       -99.90      -99.90      -99.90      -99.90      -99.90      -99.90      -99.90      -99.90      -99.90      -99.90    
  32   -99.90      -99.90      -99.90      -99.90      -99.90      -99.90      -99.90      -99.90      -99.90      -99.90    
       -99.90      -99.90      -99.90      -99.90      -99.90      -99.90      -99.90      -99.90      -99.90      -99.90    
       -99.90      -99.90      -99.90      -99.90      -99.90      -99.90      -99.90      -99.90      -99.90      -99.90    
       -99.90      -99.90      -99.90      -99.90      -99.90      -99.90      -99.90      -99.90      -99.90      -99.90    
  33   -99.90      -99.90      -99.90      -99.90      -99.90      -99.90      -99.90      -99.90      -99.90      -99.90    
       -99.90      -99.90      -99.90      -99.90      -99.90      -99.90      -99.90      -99.90      -99.90      -99.90    
       -99.90      -99.90      -99.90      -99.90      -99.90      -99.90      -99.90      -99.90      -99.90      -99.90    
       -99.90      -99.90      -99.90      -99.90      -99.90      -99.90      -99.90      -99.90      -99.90      -99.90    
  34   -99.90      -99.90      -99.90      -99.90      -99.90      -99.90      -99.90      -99.90      -99.90      -99.90    
       -99.90      -99.90      -99.90      -99.90      -99.90      -99.90      -99.90      -99.90      -99.90      -99.90    
       -99.90      -99.90      -99.90      -99.90      -99.90      -99.90      -99.90      -99.90      -99.90      -99.90    
       -99.90      -99.90      -99.90      -99.90      -99.90      -99.90      -99.90      -99.90      -99.90      -99.90    
  35   -99.90      -99.90      -99.90      -99.90      -99.90      -99.90      -99.90      -99.90      -99.90      -99.90    
       -99.90      -99.90      -99.90      -99.90      -99.90      -99.90      -99.90      -99.90      -99.90      -99.90    
       -99.90      -99.90      -99.90      -99.90      -99.90      -99.90      -99.90      -99.90      -99.90      -99.90    
       -99.90      -99.90      -99.90      -99.90      -99.90      -99.90      -99.90      -99.90      -99.90      -99.90    
  36   -99.90      -99.90      -99.90      -99.90      -99.90      -99.90      -99.90      -99.90      -99.90      -99.90    
       -99.90      -99.90      -99.90      -99.90      -99.90      -99.90      -99.90      -99.90      -99.90      -99.90    
       -99.90      -99.90      -99.90      -99.90      -99.90      -99.90      -99.90      -99.90      -99.90      -99.90    
       -99.90      -99.90      -99.90      -99.90      -99.90      -99.90      -99.90      -99.90      -99.90      -99.90    
  37   -99.90      -99.90      -99.90      -99.90      -99.90      -99.90      -99.90      -99.90      -99.90      -99.90    
       -99.90      -99.90      -99.90      -99.90      -99.90      -99.90      -99.90      -99.90      -99.90      -99.90    
       -99.90      -99.90      -99.90      -99.90      -99.90      -99.90      -99.90      -99.90      -99.90      -99.90    
       -99.90      -99.90      -99.90      -99.90      -99.90      -99.90      -99.90      -99.90      -99.90      -99.90    
  38   -99.90      -99.90      -99.90      -99.90      -99.90      -99.90      -99.90      -99.90      -99.90      -99.90    
       -99.90      -99.90      -99.90      -99.90      -99.90      -99.90      -99.90      -99.90      -99.90      -99.90    
       -99.90      -99.90      -99.90      -99.90      -99.90      -99.90      -99.90      -99.90      -99.90      -99.90    
       -99.90      -99.90      -99.90      -99.90      -99.90      -99.90      -99.90      -99.90      -99.90      -99.90    
  39   -99.90      -99.90      -99.90      -99.90      -99.90      -99.90      -99.90      -99.90      -99.90      -99.90    
       -99.90      -99.90      -99.90      -99.90      -99.90      -99.90      -99.90      -99.90      -99.90      -99.90    
       -99.90      -99.90      -99.90      -99.90      -99.90      -99.90      -99.90      -99.90      -99.90      -99.90    
       -99.90      -99.90      -99.90      -99.90      -99.90      -99.90      -99.90      -99.90      -99.90      -99.90    
  40   -99.90      -99.90      -99.90      -99.90      -99.90      -99.90      -99.90      -99.90      -99.90      -99.90    
       -99.90      -99.90      -99.90      -99.90      -99.90      -99.90      -99.90      -99.90      -99.90      -99.90    
       -99.90      -99.90      -99.90      -99.90      -99.90      -99.90      -99.90      -99.90      -99.90      -99.90    
       -99.90      -99.90      -99.90      -99.90      -99.90      -99.90      -99.90      -99.90      -99.90      -99.90    
1
              HEAD IN LAYER 3 AT END OF TIME STEP 1 IN STRESS PERIOD 3
  ---------------------------------------------------------------------------

            1           2           3           4           5           6           7           8           9          10
           11          12          13          14          15          16          17          18          19          20
           21          22          23          24          25          26          27          28          29          30
           31          32          33          34          35          36          37          38          39          40
 ........................................................................................................................
   1   -99.90      -99.90      -99.90      -99.90      -99.90      -99.90      -99.90      -99.90      -99.90      -99.90    
       -99.90      -99.90      -99.90      -99.90      -99.90      -99.90      -99.90      -99.90      -99.90      -99.90    
       -99.90      -99.90      -99.90      -99.90      -99.90      -99.90      -99.90      -99.90      -99.90      -99.90    
       -99.90      -99.90      -99.90      -99.90      -99.90      -99.90      -99.90      -99.90      -99.90      -99.90    
   2   -99.90      -99.90      -99.90      -99.90      -99.90      -99.90      -99.90      -99.90      -99.90      -99.90    
       -99.90      -99.90      -99.90      -99.90      -99.90      -99.90      -99.90      -99.90      -99.90      -99.90    
       -99.90      -99.90      -99.90      -99.90      -99.90      -99.90      -99.90      -99.90      -99.90      -99.90    
       -99.90      -99.90      -99.90      -99.90      -99.90      -99.90      -99.90      -99.90      -99.90      -99.90    
   3   -99.90      -99.90      -99.90      -99.90      -99.90      -99.90      -99.90      -99.90      -99.90      -99.90    
       -99.90      -99.90      -99.90      -99.90      -99.90      -99.90      -99.90      -99.90      -99.90      -99.90    
       -99.90      -99.90      -99.90      -99.90      -99.90      -99.90      -99.90      -99.90      -99.90      -99.90    
       -99.90      -99.90      -99.90      -99.90      -99.90      -99.90      -99.90      -99.90      -99.90      -99.90    
   4   -99.90      -99.90      -99.90      -99.90      -99.90      -99.90      -99.90      -99.90      -99.90      -99.90    
       -99.90      -99.90      -99.90      -99.90      -99.90      -99.90      -99.90      -99.90      -99.90      -99.90    
       -99.90      -99.90      -99.90      -99.90      -99.90      -99.90      -99.90      -99.90      -99.90      -99.90    
       -99.90      -99.90      -99.90      -99.90      -99.90      -99.90      -99.90      -99.90      -99.90      -99.90    
   5   -99.90      -99.90      -99.90      -99.90      -99.90      -99.90      -99.90      -99.90      -99.90      -99.90    
       -99.90      -99.90      -99.90      -99.90      -99.90      -99.90      -99.90      -99.90      -99.90      -99.90    
       -99.90      -99.90      -99.90      -99.90      -99.90      -99.90      -99.90      -99.90      -99.90      -99.90    
       -99.90      -99.90      -99.90      -99.90      -99.90      -99.90      -99.90      -99.90      -99.90      -99.90    
   6   -99.90      -99.90      -99.90      -99.90      -99.90      -99.90      -99.90      -99.90      -99.90      -99.90    
       -99.90      -99.90      -99.90      -99.90      -99.90      -99.90      -99.90      -99.90      -99.90      -99.90    
       -99.90      -99.90      -99.90      -99.90      -99.90      -99.90      -99.90      -99.90      -99.90      -99.90    
       -99.90      -99.90      -99.90      -99.90      -99.90      -99.90      -99.90      -99.90      -99.90      -99.90    
   7   -99.90      -99.90      -99.90      -99.90      -99.90      -99.90      -99.90      -99.90      -99.90      -99.90    
       -99.90      -99.90      -99.90      -99.90      -99.90      -99.90      -99.90      -99.90      -99.90      -99.90    
       -99.90      -99.90      -99.90      -99.90      -99.90      -99.90      -99.90      -99.90      -99.90      -99.90    
       -99.90      -99.90      -99.90      -99.90      -99.90      -99.90      -99.90      -99.90      -99.90      -99.90    
   8   -99.90      -99.90      -99.90      -99.90      -99.90      -99.90      -99.90      -99.90      -99.90      -99.90    
       -99.90      -99.90      -99.90      -99.90      -99.90      -99.90      -99.90      -99.90      -99.90      -99.90    
       -99.90      -99.90      -99.90      -99.90      -99.90      -99.90      -99.90      -99.90      -99.90      -99.90    
       -99.90      -99.90      -99.90      -99.90      -99.90      -99.90      -99.90      -99.90      -99.90      -99.90    
   9   -99.90      -99.90      -99.90      -99.90      -99.90      -99.90      -99.90      -99.90      -99.90      -99.90    
       -99.90      -99.90      -99.90      -99.90      -99.90      -99.90      -99.90      -99.90      -99.90      -99.90    
       -99.90      -99.90      -99.90      -99.90      -99.90      -99.90      -99.90      -99.90      -99.90      -99.90    
       -99.90      -99.90      -99.90      -99.90      -99.90      -99.90      -99.90      -99.90      -99.90      -99.90    
  10   -99.90      -99.90      -99.90      -99.90      -99.90      -99.90      -99.90      -99.90      -99.90      -99.90    
       -99.90      -99.90      -99.90      -99.90      -99.90      -99.90      -99.90      -99.90      -99.90      -99.90    
       -99.90      -99.90      -99.90      -99.90      -99.90      -99.90      -99.90      -99.90      -99.90      -99.90    
       -99.90      -99.90      -99.90      -99.90      -99.90      -99.90      -99.90      -99.90      -99.90      -99.90    
  11   -99.90      -99.90      -99.90      -99.90      -99.90      -99.90      -99.90      -99.90      -99.90      -99.90    
       -99.90      -99.90      -99.90      -99.90      -99.90      -99.90      -99.90      -99.90      -99.90      -99.90    
       -99.90      -99.90      -99.90      -99.90      -99.90      -99.90      -99.90      -99.90      -99.90      -99.90    
       -99.90      -99.90      -99.90      -99.90      -99.90      -99.90      -99.90      -99.90      -99.90      -99.90    
  12   -99.90      -99.90      -99.90      -99.90      -99.90      -99.90      -99.90      -99.90      -99.90      -99.90    
       -99.90      -99.90      -99.90      -99.90      -99.90      -99.90      -99.90      -99.90      -99.90      -99.90    
       -99.90      -99.90      -99.90      -99.90      -99.90      -99.90      -99.90      -99.90      -99.90      -99.90    
       -99.90      -99.90      -99.90      -99.90      -99.90      -99.90      -99.90      -99.90      -99.90      -99.90    
  13   -99.90      -99.90      -99.90      -99.90      -99.90      -99.90      -99.90      -99.90      -99.90      -99.90    
       -99.90      -99.90      -99.90      -99.90      -99.90      -99.90      -99.90      -99.90      -99.90      -99.90    
       -99.90      -99.90      -99.90      -99.90      -99.90      -99.90      -99.90      -99.90      -99.90      -99.90    
       -99.90      -99.90      -99.90      -99.90      -99.90      -99.90      -99.90      -99.90      -99.90      -99.90    
  14   -99.90      -99.90      -99.90      -99.90      -99.90      -99.90      -99.90      -99.90      -99.90      -99.90    
       -99.90      -99.90      -99.90      -99.90      -99.90      -99.90      -99.90      -99.90      -99.90      -99.90    
       -99.90      -99.90      -99.90      -99.90      -99.90      -99.90      -99.90      -99.90      -99.90      -99.90    
       -99.90      -99.90      -99.90      -99.90      -99.90      -99.90      -99.90      -99.90      -99.90      -99.90    
  15   -99.90      -99.90      -99.90      -99.90      -99.90      -99.90      -99.90      -99.90      -99.90      -99.90    
       -99.90      -99.90      -99.90      -99.90      -99.90      -99.90      -99.90      -99.90      -99.90      -99.90    
       -99.90      -99.90      -99.90      -99.90      -99.90      -99.90      -99.90      -99.90      -99.90      -99.90    
       -99.90      -99.90      -99.90      -99.90      -99.90      -99.90      -99.90      -99.90      -99.90      -99.90    
  16   -99.90      -99.90      -99.90      -99.90      -99.90      -99.90      -99.90      -99.90      -99.90      -99.90    
       -99.90      -99.90      -99.90      -99.90      -99.90      -99.90      -99.90      -99.90      -99.90      -99.90    
       -99.90      -99.90      -99.90      -99.90      -99.90      -99.90      -99.90      -99.90      -99.90      -99.90    
       -99.90      -99.90      -99.90      -99.90      -99.90      -99.90      -99.90      -99.90      -99.90      -99.90    
  17   -99.90      -99.90      -99.90      -99.90      -99.90      -99.90      -99.90      -99.90      -99.90      -99.90    
       -99.90      -99.90      -99.90      -99.90      -99.90      -99.90      -99.90      -99.90      -99.90      -99.90    
       -99.90      -99.90      -99.90      -99.90      -99.90      -99.90      -99.90      -99.90      -99.90      -99.90    
       -99.90      -99.90      -99.90      -99.90      -99.90      -99.90      -99.90      -99.90      -99.90      -99.90    
  18   -99.90      -99.90      -99.90      -99.90      -99.90      -99.90      -99.90      -99.90      -99.90      -99.90    
       -99.90      -99.90      -99.90      -99.90      -99.90      -99.90      -99.90      -99.90      -99.90      -99.90    
       -99.90      -99.90      -99.90      -99.90      -99.90      -99.90      -99.90      -99.90      -99.90      -99.90    
       -99.90      -99.90      -99.90      -99.90      -99.90      -99.90      -99.90      -99.90      -99.90      -99.90    
  19   -99.90      -99.90      -99.90      -99.90      -99.90      -99.90      -99.90      -99.90      -99.90      -99.90    
       -99.90      -99.90      -99.90      -99.90      -99.90      -99.90      -99.90      -99.90      -99.90      -99.90    
       -99.90      -99.90      -99.90      -99.90      -99.90      -99.90      -99.90      -99.90      -99.90      -99.90    
       -99.90      -99.90      -99.90      -99.90      -99.90      -99.90      -99.90      -99.90      -99.90      -99.90    
  20   -99.90      -99.90      -99.90      -99.90      -99.90      -99.90      -99.90      -99.90      -99.90      -99.90    
       -99.90      -99.90      -99.90      -99.90      -99.90      -99.90      -99.90      -99.90      -99.90      -99.90    
       -99.90      -99.90      -99.90      -99.90      -99.90      -99.90      -99.90      -99.90      -99.90      -99.90    
       -99.90      -99.90      -99.90      -99.90      -99.90      -99.90      -99.90      -99.90      -99.90      -99.90    
  21   -99.90      -99.90      -99.90      -99.90      -99.90      -99.90      -99.90      -99.90      -99.90      -99.90    
       -99.90      -99.90      -99.90      -99.90      -99.90      -99.90      -99.90      -99.90      -99.90      -99.90    
       -99.90      -99.90      -99.90      -99.90      -99.90      -99.90      -99.90      -99.90      -99.90      -99.90    
       -99.90      -99.90      -99.90      -99.90      -99.90      -99.90      -99.90      -99.90      -99.90      -99.90    
  22   -99.90      -99.90      -99.90      -99.90      -99.90      -99.90      -99.90      -99.90      -99.90      -99.90    
       -99.90      -99.90      -99.90      -99.90      -99.90      -99.90      -99.90      -99.90      -99.90      -99.90    
       -99.90      -99.90      -99.90      -99.90      -99.90      -99.90      -99.90      -99.90      -99.90      -99.90    
       -99.90      -99.90      -99.90      -99.90      -99.90      -99.90      -99.90      -99.90      -99.90      -99.90    
  23   -99.90      -99.90      -99.90      -99.90      -99.90      -99.90      -99.90      -99.90      -99.90      -99.90    
       -99.90      -99.90      -99.90      -99.90      -99.90      -99.90      -99.90      -99.90      -99.90      -99.90    
       -99.90      -99.90      -99.90      -99.90      -99.90      -99.90      -99.90      -99.90      -99.90      -99.90    
       -99.90      -99.90      -99.90      -99.90      -99.90      -99.90      -99.90      -99.90      -99.90      -99.90    
  24   -99.90      -99.90      -99.90      -99.90      -99.90      -99.90      -99.90      -99.90      -99.90      -99.90    
       -99.90      -99.90      -99.90      -99.90      -99.90      -99.90      -99.90      -99.90      -99.90      -99.90    
       -99.90      -99.90      -99.90      -99.90      -99.90      -99.90      -99.90      -99.90      -99.90      -99.90    
       -99.90      -99.90      -99.90      -99.90      -99.90      -99.90      -99.90      -99.90      -99.90      -99.90    
  25   -99.90      -99.90      -99.90      -99.90      -99.90      -99.90      -99.90      -99.90      -99.90      -99.90    
       -99.90      -99.90      -99.90      -99.90      -99.90      -99.90      -99.90      -99.90      -99.90      -99.90    
       -99.90      -99.90      -99.90      -99.90      -99.90      -99.90      -99.90      -99.90      -99.90      -99.90    
       -99.90      -99.90      -99.90      -99.90      -99.90      -99.90      -99.90      -99.90      -99.90      -99.90    
  26   -99.90      -99.90      -99.90      -99.90      -99.90      -99.90      -99.90      -99.90      -99.90      -99.90    
       -99.90      -99.90      -99.90      -99.90      -99.90      -99.90      -99.90      -99.90      -99.90      -99.90    
       -99.90      -99.90      -99.90      -99.90      -99.90      -99.90      -99.90      -99.90      -99.90      -99.90    
       -99.90      -99.90      -99.90      -99.90      -99.90      -99.90      -99.90      -99.90      -99.90      -99.90    
  27   -99.90      -99.90      -99.90      -99.90      -99.90      -99.90      -99.90      -99.90      -99.90      -99.90    
       -99.90      -99.90      -99.90      -99.90      -99.90      -99.90      -99.90      -99.90      -99.90      -99.90    
       -99.90      -99.90      -99.90      -99.90      -99.90      -99.90      -99.90      -99.90      -99.90      -99.90    
       -99.90      -99.90      -99.90      -99.90      -99.90      -99.90      -99.90      -99.90      -99.90      -99.90    
  28   -99.90      -99.90      -99.90      -99.90      -99.90      -99.90      -99.90      -99.90      -99.90      -99.90    
       -99.90      -99.90      -99.90      -99.90      -99.90      -99.90      -99.90      -99.90      -99.90      -99.90    
       -99.90      -99.90      -99.90      -99.90      -99.90      -99.90      -99.90      -99.90      -99.90      -99.90    
       -99.90      -99.90      -99.90      -99.90      -99.90      -99.90      -99.90      -99.90      -99.90      -99.90    
  29   -99.90      -99.90      -99.90      -99.90      -99.90      -99.90      -99.90      -99.90      -99.90      -99.90    
       -99.90      -99.90      -99.90      -99.90      -99.90      -99.90      -99.90      -99.90      -99.90      -99.90    
       -99.90      -99.90      -99.90      -99.90      -99.90      -99.90      -99.90      -99.90      -99.90      -99.90    
       -99.90      -99.90      -99.90      -99.90      -99.90      -99.90      -99.90      -99.90      -99.90      -99.90    
  30   -99.90      -99.90      -99.90      -99.90      -99.90      -99.90      -99.90      -99.90      -99.90      -99.90    
       -99.90      -99.90      -99.90      -99.90      -99.90      -99.90      -99.90      -99.90      -99.90      -99.90    
       -99.90      -99.90      -99.90      -99.90      -99.90      -99.90      -99.90      -99.90      -99.90      -99.90    
       -99.90      -99.90      -99.90      -99.90      -99.90      -99.90      -99.90      -99.90      -99.90      -99.90    
  31   -99.90      -99.90      -99.90      -99.90      -99.90      -99.90      -99.90      -99.90      -99.90      -99.90    
       -99.90      -99.90      -99.90      -99.90      -99.90      -99.90      -99.90      -99.90      -99.90      -99.90    
       -99.90      -99.90      -99.90      -99.90      -99.90      -99.90      -99.90      -99.90      -99.90      -99.90    
       -99.90      -99.90      -99.90      -99.90      -99.90      -99.90      -99.90      -99.90      -99.90      -99.90    
  32   -99.90      -99.90      -99.90      -99.90      -99.90      -99.90      -99.90      -99.90      -99.90      -99.90    
       -99.90      -99.90      -99.90      -99.90      -99.90      -99.90      -99.90      -99.90      -99.90      -99.90    
       -99.90      -99.90      -99.90      -99.90      -99.90      -99.90      -99.90      -99.90      -99.90      -99.90    
       -99.90      -99.90      -99.90      -99.90      -99.90      -99.90      -99.90      -99.90      -99.90      -99.90    
  33   -99.90      -99.90      -99.90      -99.90      -99.90      -99.90      -99.90      -99.90      -99.90      -99.90    
       -99.90      -99.90      -99.90      -99.90      -99.90      -99.90      -99.90      -99.90      -99.90      -99.90    
       -99.90      -99.90      -99.90      -99.90      -99.90      -99.90      -99.90      -99.90      -99.90      -99.90    
       -99.90      -99.90      -99.90      -99.90      -99.90      -99.90      -99.90      -99.90      -99.90      -99.90    
  34   -99.90      -99.90      -99.90      -99.90      -99.90      -99.90      -99.90      -99.90      -99.90      -99.90    
       -99.90      -99.90      -99.90      -99.90      -99.90      -99.90      -99.90      -99.90      -99.90      -99.90    
       -99.90      -99.90      -99.90      -99.90      -99.90      -99.90      -99.90      -99.90      -99.90      -99.90    
       -99.90      -99.90      -99.90      -99.90      -99.90      -99.90      -99.90      -99.90      -99.90      -99.90    
  35   -99.90      -99.90      -99.90      -99.90      -99.90      -99.90      -99.90      -99.90      -99.90      -99.90    
       -99.90      -99.90      -99.90      -99.90      -99.90      -99.90      -99.90      -99.90      -99.90      -99.90    
       -99.90      -99.90      -99.90      -99.90      -99.90      -99.90      -99.90      -99.90      -99.90      -99.90    
       -99.90      -99.90      -99.90      -99.90      -99.90      -99.90      -99.90      -99.90      -99.90      -99.90    
  36   -99.90      -99.90      -99.90      -99.90      -99.90      -99.90      -99.90      -99.90      -99.90      -99.90    
       -99.90      -99.90      -99.90      -99.90      -99.90      -99.90      -99.90      -99.90      -99.90      -99.90    
       -99.90      -99.90      -99.90      -99.90      -99.90      -99.90      -99.90      -99.90      -99.90      -99.90    
       -99.90      -99.90      -99.90      -99.90      -99.90      -99.90      -99.90      -99.90      -99.90      -99.90    
  37   -99.90      -99.90      -99.90      -99.90      -99.90      -99.90      -99.90      -99.90      -99.90      -99.90    
       -99.90      -99.90      -99.90      -99.90      -99.90      -99.90      -99.90      -99.90      -99.90      -99.90    
       -99.90      -99.90      -99.90      -99.90      -99.90      -99.90      -99.90      -99.90      -99.90      -99.90    
       -99.90      -99.90      -99.90      -99.90      -99.90      -99.90      -99.90      -99.90      -99.90      -99.90    
  38   -99.90      -99.90      -99.90      -99.90      -99.90      -99.90      -99.90      -99.90      -99.90      -99.90    
       -99.90      -99.90      -99.90      -99.90      -99.90      -99.90      -99.90      -99.90      -99.90      -99.90    
       -99.90      -99.90      -99.90      -99.90      -99.90      -99.90      -99.90      -99.90      -99.90      -99.90    
       -99.90      -99.90      -99.90      -99.90      -99.90      -99.90      -99.90      -99.90      -99.90      -99.90    
  39   -99.90      -99.90      -99.90      -99.90      -99.90      -99.90      -99.90      -99.90      -99.90      -99.90    
       -99.90      -99.90      -99.90      -99.90      -99.90      -99.90      -99.90      -99.90      -99.90      -99.90    
       -99.90      -99.90      -99.90      -99.90      -99.90      -99.90      -99.90      -99.90      -99.90      -99.90    
       -99.90      -99.90      -99.90      -99.90      -99.90      -99.90      -99.90      -99.90      -99.90      -99.90    
  40   -99.90      -99.90      -99.90      -99.90      -99.90      -99.90      -99.90      -99.90      -99.90      -99.90    
       -99.90      -99.90      -99.90      -99.90      -99.90      -99.90      -99.90      -99.90      -99.90      -99.90    
       -99.90      -99.90      -99.90      -99.90      -99.90      -99.90      -99.90      -99.90      -99.90      -99.90    
       -99.90      -99.90      -99.90      -99.90      -99.90      -99.90      -99.90      -99.90      -99.90      -99.90    
1
              HEAD IN LAYER 4 AT END OF TIME STEP 1 IN STRESS PERIOD 3
  ---------------------------------------------------------------------------

            1           2           3           4           5           6           7           8           9          10
           11          12          13          14          15          16          17          18          19          20
           21          22          23          24          25          26          27          28          29          30
           31          32          33          34          35          36          37          38          39          40
 ........................................................................................................................
   1   -99.90      -99.90      -99.90      -99.90      -99.90      -99.90      -99.90      -99.90      -99.90      -99.90    
       -99.90      -99.90      -99.90      -99.90      -99.90      -99.90      -99.90      -99.90      -99.90      -99.90    
       -99.90      -99.90      -99.90      -99.90      -99.90      -99.90      -99.90      -99.90      -99.90      -99.90    
       -99.90      -99.90      -99.90      -99.90      -99.90      -99.90      -99.90      -99.90      -99.90      -99.90    
   2   -99.90      -99.90      -99.90      -99.90      -99.90      -99.90      -99.90      -99.90      -99.90      -99.90    
       -99.90      -99.90      -99.90      -99.90      -99.90      -99.90      -99.90      -99.90      -99.90      -99.90    
       -99.90      -99.90      -99.90      -99.90      -99.90      -99.90      -99.90      -99.90      -99.90      -99.90    
       -99.90      -99.90      -99.90      -99.90      -99.90      -99.90      -99.90      -99.90      -99.90      -99.90    
   3   -99.90      -99.90      -99.90      -99.90      -99.90      -99.90      -99.90      -99.90      -99.90      -99.90    
       -99.90      -99.90      -99.90      -99.90      -99.90      -99.90      -99.90      -99.90      -99.90      -99.90    
       -99.90      -99.90      -99.90      -99.90      -99.90      -99.90      -99.90      -99.90      -99.90      -99.90    
       -99.90      -99.90      -99.90      -99.90      -99.90      -99.90      -99.90      -99.90      -99.90      -99.90    
   4   -99.90      -99.90      -99.90      -99.90      -99.90      -99.90      -99.90      -99.90      -99.90      -99.90    
       -99.90      -99.90      -99.90      -99.90      -99.90      -99.90      -99.90      -99.90      -99.90      -99.90    
       -99.90      -99.90      -99.90      -99.90      -99.90      -99.90      -99.90      -99.90      -99.90      -99.90    
       -99.90      -99.90      -99.90      -99.90      -99.90      -99.90      -99.90      -99.90      -99.90      -99.90    
   5   -99.90      -99.90      -99.90      -99.90      -99.90      -99.90      -99.90      -99.90      -99.90      -99.90    
       -99.90      -99.90      -99.90      -99.90      -99.90      -99.90      -99.90      -99.90      -99.90      -99.90    
       -99.90      -99.90      -99.90      -99.90      -99.90      -99.90      -99.90      -99.90      -99.90      -99.90    
       -99.90      -99.90      -99.90      -99.90      -99.90      -99.90      -99.90      -99.90      -99.90      -99.90    
   6   -99.90      -99.90      -99.90      -99.90      -99.90      -99.90      -99.90      -99.90      -99.90      -99.90    
       -99.90      -99.90      -99.90      -99.90      -99.90      -99.90      -99.90      -99.90      -99.90      -99.90    
       -99.90      -99.90      -99.90      -99.90      -99.90      -99.90      -99.90      -99.90      -99.90      -99.90    
       -99.90      -99.90      -99.90      -99.90      -99.90      -99.90      -99.90      -99.90      -99.90      -99.90    
   7   -99.90      -99.90      -99.90      -99.90      -99.90      -99.90      -99.90      -99.90      -99.90      -99.90    
       -99.90      -99.90      -99.90      -99.90      -99.90      -99.90      -99.90      -99.90      -99.90      -99.90    
       -99.90      -99.90      -99.90      -99.90      -99.90      -99.90      -99.90      -99.90      -99.90      -99.90    
       -99.90      -99.90      -99.90      -99.90      -99.90      -99.90      -99.90      -99.90      -99.90      -99.90    
   8   -99.90      -99.90      -99.90      -99.90      -99.90      -99.90      -99.90      -99.90      -99.90      -99.90    
       -99.90      -99.90      -99.90      -99.90      -99.90      -99.90      -99.90      -99.90      -99.90      -99.90    
       -99.90      -99.90      -99.90      -99.90      -99.90      -99.90      -99.90      -99.90      -99.90      -99.90    
       -99.90      -99.90      -99.90      -99.90      -99.90      -99.90      -99.90      -99.90      -99.90      -99.90    
   9   -99.90      -99.90      -99.90      -99.90      -99.90      -99.90      -99.90      -99.90      -99.90      -99.90    
       -99.90      -99.90      -99.90      -99.90      -99.90      -99.90      -99.90      -99.90      -99.90      -99.90    
       -99.90      -99.90      -99.90      -99.90      -99.90      -99.90      -99.90      -99.90      -99.90      -99.90    
       -99.90      -99.90      -99.90      -99.90      -99.90      -99.90      -99.90      -99.90      -99.90      -99.90    
  10   -99.90      -99.90      -99.90      -99.90      -99.90      -99.90      -99.90      -99.90      -99.90      -99.90    
       -99.90      -99.90      -99.90      -99.90      -99.90      -99.90      -99.90      -99.90      -99.90      -99.90    
       -99.90      -99.90      -99.90      -99.90      -99.90      -99.90      -99.90      -99.90      -99.90      -99.90    
       -99.90      -99.90      -99.90      -99.90      -99.90      -99.90      -99.90      -99.90      -99.90      -99.90    
  11   -99.90      -99.90      -99.90      -99.90      -99.90      -99.90      -99.90      -99.90      -99.90      -99.90    
       -99.90      -99.90      -99.90      -99.90      -99.90      -99.90      -99.90      -99.90      -99.90      -99.90    
       -99.90      -99.90      -99.90      -99.90      -99.90      -99.90      -99.90      -99.90      -99.90      -99.90    
       -99.90      -99.90      -99.90      -99.90      -99.90      -99.90      -99.90      -99.90      -99.90      -99.90    
  12   -99.90      -99.90      -99.90      -99.90      -99.90      -99.90      -99.90      -99.90      -99.90      -99.90    
       -99.90      -99.90      -99.90      -99.90      -99.90      -99.90      -99.90      -99.90      -99.90      -99.90    
       -99.90      -99.90      -99.90      -99.90      -99.90      -99.90      -99.90      -99.90      -99.90      -99.90    
       -99.90      -99.90      -99.90      -99.90      -99.90      -99.90      -99.90      -99.90      -99.90      -99.90    
  13   -99.90      -99.90      -99.90      -99.90      -99.90      -99.90      -99.90      -99.90      -99.90      -99.90    
       -99.90      -99.90      -99.90      -99.90      -99.90      -99.90      -99.90      -99.90      -99.90      -99.90    
       -99.90      -99.90      -99.90      -99.90      -99.90      -99.90      -99.90      -99.90      -99.90      -99.90    
       -99.90      -99.90      -99.90      -99.90      -99.90      -99.90      -99.90      -99.90      -99.90      -99.90    
  14   -99.90      -99.90      -99.90      -99.90      -99.90      -99.90      -99.90      -99.90      -99.90      -99.90    
       -99.90      -99.90      -99.90      -99.90      -99.90      -99.90      -99.90      -99.90      -99.90      -99.90    
       -99.90      -99.90      -99.90      -99.90      -99.90      -99.90      -99.90      -99.90      -99.90      -99.90    
       -99.90      -99.90      -99.90      -99.90      -99.90      -99.90      -99.90      -99.90      -99.90      -99.90    
  15   -99.90      -99.90      -99.90      -99.90      -99.90      -99.90      -99.90      -99.90      -99.90      -99.90    
       -99.90      -99.90      -99.90      -99.90      -99.90      -99.90      -99.90      -99.90      -99.90      -99.90    
       -99.90      -99.90      -99.90      -99.90      -99.90      -99.90      -99.90      -99.90      -99.90      -99.90    
       -99.90      -99.90      -99.90      -99.90      -99.90      -99.90      -99.90      -99.90      -99.90      -99.90    
  16   -99.90      -99.90      -99.90      -99.90      -99.90      -99.90      -99.90      -99.90      -99.90      -99.90    
       -99.90      -99.90      -99.90      -99.90      -99.90      -99.90      -99.90      -99.90      -99.90      -99.90    
       -99.90      -99.90      -99.90      -99.90      -99.90      -99.90      -99.90      -99.90      -99.90      -99.90    
       -99.90      -99.90      -99.90      -99.90      -99.90      -99.90      -99.90      -99.90      -99.90      -99.90    
  17   -99.90      -99.90      -99.90      -99.90      -99.90      -99.90      -99.90      -99.90      -99.90      -99.90    
       -99.90      -99.90      -99.90      -99.90      -99.90      -99.90      -99.90      -99.90      -99.90      -99.90    
       -99.90      -99.90      -99.90      -99.90      -99.90      -99.90      -99.90      -99.90      -99.90      -99.90    
       -99.90      -99.90      -99.90      -99.90      -99.90      -99.90      -99.90      -99.90      -99.90      -99.90    
  18   -99.90      -99.90      -99.90      -99.90      -99.90      -99.90      -99.90      -99.90      -99.90      -99.90    
       -99.90      -99.90      -99.90      -99.90      -99.90      -99.90      -99.90      -99.90      -99.90      -99.90    
       -99.90      -99.90      -99.90      -99.90      -99.90      -99.90      -99.90      -99.90      -99.90      -99.90    
       -99.90      -99.90      -99.90      -99.90      -99.90      -99.90      -99.90      -99.90      -99.90      -99.90    
  19   -99.90      -99.90      -99.90      -99.90      -99.90      -99.90      -99.90      -99.90      -99.90      -99.90    
       -99.90      -99.90      -99.90      -99.90      -99.90      -99.90      -99.90      -99.90      -99.90      -99.90    
       -99.90      -99.90      -99.90      -99.90      -99.90      -99.90      -99.90      -99.90      -99.90      -99.90    
       -99.90      -99.90      -99.90      -99.90      -99.90      -99.90      -99.90      -99.90      -99.90      -99.90    
  20   -99.90      -99.90      -99.90      -99.90      -99.90      -99.90      -99.90      -99.90      -99.90      -99.90    
       -99.90      -99.90      -99.90      -99.90      -99.90      -99.90      -99.90      -99.90      -99.90      -99.90    
       -99.90      -99.90      -99.90      -99.90      -99.90      -99.90      -99.90      -99.90      -99.90      -99.90    
       -99.90      -99.90      -99.90      -99.90      -99.90      -99.90      -99.90      -99.90      -99.90      -99.90    
  21   -99.90      -99.90      -99.90      -99.90      -99.90      -99.90      -99.90      -99.90      -99.90      -99.90    
       -99.90      -99.90      -99.90      -99.90      -99.90      -99.90      -99.90      -99.90      -99.90      -99.90    
       -99.90      -99.90      -99.90      -99.90      -99.90      -99.90      -99.90      -99.90      -99.90      -99.90    
       -99.90      -99.90      -99.90      -99.90      -99.90      -99.90      -99.90      -99.90      -99.90      -99.90    
  22   -99.90      -99.90      -99.90      -99.90      -99.90      -99.90      -99.90      -99.90      -99.90      -99.90    
       -99.90      -99.90      -99.90      -99.90      -99.90      -99.90      -99.90      -99.90      -99.90      -99.90    
       -99.90      -99.90      -99.90      -99.90      -99.90      -99.90      -99.90      -99.90      -99.90      -99.90    
       -99.90      -99.90      -99.90      -99.90      -99.90      -99.90      -99.90      -99.90      -99.90      -99.90    
  23   -99.90      -99.90      -99.90      -99.90      -99.90      -99.90      -99.90      -99.90      -99.90      -99.90    
       -99.90      -99.90      -99.90      -99.90      -99.90      -99.90      -99.90      -99.90      -99.90      -99.90    
       -99.90      -99.90      -99.90      -99.90      -99.90      -99.90      -99.90      -99.90      -99.90      -99.90    
       -99.90      -99.90      -99.90      -99.90      -99.90      -99.90      -99.90      -99.90      -99.90      -99.90    
  24   -99.90      -99.90      -99.90      -99.90      -99.90      -99.90      -99.90      -99.90      -99.90      -99.90    
       -99.90      -99.90      -99.90      -99.90      -99.90      -99.90      -99.90      -99.90      -99.90      -99.90    
       -99.90      -99.90      -99.90      -99.90      -99.90      -99.90      -99.90      -99.90      -99.90      -99.90    
       -99.90      -99.90      -99.90      -99.90      -99.90      -99.90      -99.90      -99.90      -99.90      -99.90    
  25   -99.90      -99.90      -99.90      -99.90      -99.90      -99.90      -99.90      -99.90      -99.90      -99.90    
       -99.90      -99.90      -99.90      -99.90      -99.90      -99.90      -99.90      -99.90      -99.90      -99.90    
       -99.90      -99.90      -99.90      -99.90      -99.90      -99.90      -99.90      -99.90      -99.90      -99.90    
       -99.90      -99.90      -99.90      -99.90      -99.90      -99.90      -99.90      -99.90      -99.90      -99.90    
  26   -99.90      -99.90      -99.90      -99.90      -99.90      -99.90      -99.90      -99.90      -99.90      -99.90    
       -99.90      -99.90      -99.90      -99.90      -99.90      -99.90      -99.90      -99.90      -99.90      -99.90    
       -99.90      -99.90      -99.90      -99.90      -99.90      -99.90      -99.90      -99.90      -99.90      -99.90    
       -99.90      -99.90      -99.90      -99.90      -99.90      -99.90      -99.90      -99.90      -99.90      -99.90    
  27   -99.90      -99.90      -99.90      -99.90      -99.90      -99.90      -99.90      -99.90      -99.90      -99.90    
       -99.90      -99.90      -99.90      -99.90      -99.90      -99.90      -99.90      -99.90      -99.90      -99.90    
       -99.90      -99.90      -99.90      -99.90      -99.90      -99.90      -99.90      -99.90      -99.90      -99.90    
       -99.90      -99.90      -99.90      -99.90      -99.90      -99.90      -99.90      -99.90      -99.90      -99.90    
  28   -99.90      -99.90      -99.90      -99.90      -99.90      -99.90      -99.90      -99.90      -99.90      -99.90    
       -99.90      -99.90      -99.90      -99.90      -99.90      -99.90      -99.90      -99.90      -99.90      -99.90    
       -99.90      -99.90      -99.90      -99.90      -99.90      -99.90      -99.90      -99.90      -99.90      -99.90    
       -99.90      -99.90      -99.90      -99.90      -99.90      -99.90      -99.90      -99.90      -99.90      -99.90    
  29   -99.90      -99.90      -99.90      -99.90      -99.90      -99.90      -99.90      -99.90      -99.90      -99.90    
       -99.90      -99.90      -99.90      -99.90      -99.90      -99.90      -99.90      -99.90      -99.90      -99.90    
       -99.90      -99.90      -99.90      -99.90      -99.90      -99.90      -99.90      -99.90      -99.90      -99.90    
       -99.90      -99.90      -99.90      -99.90      -99.90      -99.90      -99.90      -99.90      -99.90      -99.90    
  30   -99.90      -99.90      -99.90      -99.90      -99.90      -99.90      -99.90      -99.90      -99.90      -99.90    
       -99.90      -99.90      -99.90      -99.90      -99.90      -99.90      -99.90      -99.90      -99.90      -99.90    
       -99.90      -99.90      -99.90      -99.90      -99.90      -99.90      -99.90      -99.90      -99.90      -99.90    
       -99.90      -99.90      -99.90      -99.90      -99.90      -99.90      -99.90      -99.90      -99.90      -99.90    
  31   -99.90      -99.90      -99.90      -99.90      -99.90      -99.90      -99.90      -99.90      -99.90      -99.90    
       -99.90      -99.90      -99.90      -99.90      -99.90      -99.90      -99.90      -99.90      -99.90      -99.90    
       -99.90      -99.90      -99.90      -99.90      -99.90      -99.90      -99.90      -99.90      -99.90      -99.90    
       -99.90      -99.90      -99.90      -99.90      -99.90      -99.90      -99.90      -99.90      -99.90      -99.90    
  32   -99.90      -99.90      -99.90      -99.90      -99.90      -99.90      -99.90      -99.90      -99.90      -99.90    
       -99.90      -99.90      -99.90      -99.90      -99.90      -99.90      -99.90      -99.90      -99.90      -99.90    
       -99.90      -99.90      -99.90      -99.90      -99.90      -99.90      -99.90      -99.90      -99.90      -99.90    
       -99.90      -99.90      -99.90      -99.90      -99.90      -99.90      -99.90      -99.90      -99.90      -99.90    
  33   -99.90      -99.90      -99.90      -99.90      -99.90      -99.90      -99.90      -99.90      -99.90      -99.90    
       -99.90      -99.90      -99.90      -99.90      -99.90      -99.90      -99.90      -99.90      -99.90      -99.90    
       -99.90      -99.90      -99.90      -99.90      -99.90      -99.90      -99.90      -99.90      -99.90      -99.90    
       -99.90      -99.90      -99.90      -99.90      -99.90      -99.90      -99.90      -99.90      -99.90      -99.90    
  34   -99.90      -99.90      -99.90      -99.90      -99.90      -99.90      -99.90      -99.90      -99.90      -99.90    
       -99.90      -99.90      -99.90      -99.90      -99.90      -99.90      -99.90      -99.90      -99.90      -99.90    
       -99.90      -99.90      -99.90      -99.90      -99.90      -99.90      -99.90      -99.90      -99.90      -99.90    
       -99.90      -99.90      -99.90      -99.90      -99.90      -99.90      -99.90      -99.90      -99.90      -99.90    
  35   -99.90      -99.90      -99.90      -99.90      -99.90      -99.90      -99.90      -99.90      -99.90      -99.90    
       -99.90      -99.90      -99.90      -99.90      -99.90      -99.90      -99.90      -99.90      -99.90      -99.90    
       -99.90      -99.90      -99.90      -99.90      -99.90      -99.90      -99.90      -99.90      -99.90      -99.90    
       -99.90      -99.90      -99.90      -99.90      -99.90      -99.90      -99.90      -99.90      -99.90      -99.90    
  36   -99.90      -99.90      -99.90      -99.90      -99.90      -99.90      -99.90      -99.90      -99.90      -99.90    
       -99.90      -99.90      -99.90      -99.90      -99.90      -99.90      -99.90      -99.90      -99.90      -99.90    
       -99.90      -99.90      -99.90      -99.90      -99.90      -99.90      -99.90      -99.90      -99.90      -99.90    
       -99.90      -99.90      -99.90      -99.90      -99.90      -99.90      -99.90      -99.90      -99.90      -99.90    
  37   -99.90      -99.90      -99.90      -99.90      -99.90      -99.90      -99.90      -99.90      -99.90      -99.90    
       -99.90      -99.90      -99.90      -99.90      -99.90      -99.90      -99.90      -99.90      -99.90      -99.90    
       -99.90      -99.90      -99.90      -99.90      -99.90      -99.90      -99.90      -99.90      -99.90      -99.90    
       -99.90      -99.90      -99.90      -99.90      -99.90      -99.90      -99.90      -99.90      -99.90      -99.90    
  38   -99.90      -99.90      -99.90      -99.90      -99.90      -99.90      -99.90      -99.90      -99.90      -99.90    
       -99.90      -99.90      -99.90      -99.90      -99.90      -99.90      -99.90      -99.90      -99.90      -99.90    
       -99.90      -99.90      -99.90      -99.90      -99.90      -99.90      -99.90      -99.90      -99.90      -99.90    
       -99.90      -99.90      -99.90      -99.90      -99.90      -99.90      -99.90      -99.90      -99.90      -99.90    
  39   -99.90      -99.90      -99.90      -99.90      -99.90      -99.90      -99.90      -99.90      -99.90      -99.90    
       -99.90      -99.90      -99.90      -99.90      -99.90      -99.90      -99.90      -99.90      -99.90      -99.90    
       -99.90      -99.90      -99.90      -99.90      -99.90      -99.90      -99.90      -99.90      -99.90      -99.90    
       -99.90      -99.90      -99.90      -99.90      -99.90      -99.90      -99.90      -99.90      -99.90      -99.90    
  40   -99.90      -99.90      -99.90      -99.90      -99.90      -99.90      -99.90      -99.90      -99.90      -99.90    
       -99.90      -99.90      -99.90      -99.90      -99.90      -99.90      -99.90      -99.90      -99.90      -99.90    
       -99.90      -99.90      -99.90      -99.90      -99.90      -99.90      -99.90      -99.90      -99.90      -99.90    
       -99.90      -99.90      -99.90      -99.90      -99.90      -99.90      -99.90      -99.90      -99.90      -99.90    
1
              HEAD IN LAYER 5 AT END OF TIME STEP 1 IN STRESS PERIOD 3
  ---------------------------------------------------------------------------

            1           2           3           4           5           6           7           8           9          10
           11          12          13          14          15          16          17          18          19          20
           21          22          23          24          25          26          27          28          29          30
           31          32          33          34          35          36          37          38          39          40
 ........................................................................................................................
   1    48.33       46.67      -99.90      -99.90      -99.90      -99.90      -99.90      -99.90      -99.90      -99.90    
       -99.90      -99.90      -99.90      -99.90      -99.90      -99.90      -99.90      -99.90      -99.90      -99.90    
       -99.90      -99.90      -99.90      -99.90      -99.90      -99.90      -99.90      -99.90      -99.90      -99.90    
       -99.90      -99.90      -99.90      -99.90      -99.90      -99.90      -99.90      -99.90      -99.90      -99.90    
   2    46.67       45.31      -99.90      -99.90      -99.90      -99.90      -99.90      -99.90      -99.90      -99.90    
       -99.90      -99.90      -99.90      -99.90      -99.90      -99.90      -99.90      -99.90      -99.90      -99.90    
       -99.90      -99.90      -99.90      -99.90      -99.90      -99.90      -99.90      -99.90      -99.90      -99.90    
       -99.90      -99.90      -99.90      -99.90      -99.90      -99.90      -99.90      -99.90      -99.90      -99.90    
   3   -99.90      -99.90      -99.90      -99.90      -99.90      -99.90      -99.90      -99.90      -99.90      -99.90    
       -99.90      -99.90      -99.90      -99.90      -99.90      -99.90      -99.90      -99.90      -99.90      -99.90    
       -99.90      -99.90      -99.90      -99.90      -99.90      -99.90      -99.90      -99.90      -99.90      -99.90    
       -99.90      -99.90      -99.90      -99.90      -99.90      -99.90      -99.90      -99.90      -99.90      -99.90    
   4   -99.90      -99.90      -99.90      -99.90      -99.90      -99.90      -99.90      -99.90      -99.90      -99.90    
       -99.90      -99.90      -99.90      -99.90      -99.90      -99.90      -99.90      -99.90      -99.90      -99.90    
       -99.90      -99.90      -99.90      -99.90      -99.90      -99.90      -99.90      -99.90      -99.90      -99.90    
       -99.90      -99.90      -99.90      -99.90      -99.90      -99.90      -99.90      -99.90      -99.90      -99.90    
   5   -99.90      -99.90      -99.90      -99.90      -99.90      -99.90      -99.90      -99.90      -99.90      -99.90    
       -99.90      -99.90      -99.90      -99.90      -99.90      -99.90      -99.90      -99.90      -99.90      -99.90    
       -99.90      -99.90      -99.90      -99.90      -99.90      -99.90      -99.90      -99.90      -99.90      -99.90    
       -99.90      -99.90      -99.90      -99.90      -99.90      -99.90      -99.90      -99.90      -99.90      -99.90    
   6   -99.90      -99.90      -99.90      -99.90      -99.90      -99.90      -99.90      -99.90      -99.90      -99.90    
       -99.90      -99.90      -99.90      -99.90      -99.90      -99.90      -99.90      -99.90      -99.90      -99.90    
       -99.90      -99.90      -99.90      -99.90      -99.90      -99.90      -99.90      -99.90      -99.90      -99.90    
       -99.90      -99.90      -99.90      -99.90      -99.90      -99.90      -99.90      -99.90      -99.90      -99.90    
   7   -99.90      -99.90      -99.90      -99.90      -99.90      -99.90      -99.90      -99.90      -99.90      -99.90    
       -99.90      -99.90      -99.90      -99.90      -99.90      -99.90      -99.90      -99.90      -99.90      -99.90    
       -99.90      -99.90      -99.90      -99.90      -99.90      -99.90      -99.90      -99.90      -99.90      -99.90    
       -99.90      -99.90      -99.90      -99.90      -99.90      -99.90      -99.90      -99.90      -99.90      -99.90    
   8   -99.90      -99.90      -99.90      -99.90      -99.90      -99.90      -99.90      -99.90      -99.90      -99.90    
       -99.90      -99.90      -99.90      -99.90      -99.90      -99.90      -99.90      -99.90      -99.90      -99.90    
       -99.90      -99.90      -99.90      -99.90      -99.90      -99.90      -99.90      -99.90      -99.90      -99.90    
       -99.90      -99.90      -99.90      -99.90      -99.90      -99.90      -99.90      -99.90      -99.90      -99.90    
   9   -99.90      -99.90      -99.90      -99.90      -99.90      -99.90      -99.90      -99.90      -99.90      -99.90    
       -99.90      -99.90      -99.90      -99.90      -99.90      -99.90      -99.90      -99.90      -99.90      -99.90    
       -99.90      -99.90      -99.90      -99.90      -99.90      -99.90      -99.90      -99.90      -99.90      -99.90    
       -99.90      -99.90      -99.90      -99.90      -99.90      -99.90      -99.90      -99.90      -99.90      -99.90    
  10   -99.90      -99.90      -99.90      -99.90      -99.90      -99.90      -99.90      -99.90      -99.90      -99.90    
       -99.90      -99.90      -99.90      -99.90      -99.90      -99.90      -99.90      -99.90      -99.90      -99.90    
       -99.90      -99.90      -99.90      -99.90      -99.90      -99.90      -99.90      -99.90      -99.90      -99.90    
       -99.90      -99.90      -99.90      -99.90      -99.90      -99.90      -99.90      -99.90      -99.90      -99.90    
  11   -99.90      -99.90      -99.90      -99.90      -99.90      -99.90      -99.90      -99.90      -99.90      -99.90    
       -99.90      -99.90      -99.90      -99.90      -99.90      -99.90      -99.90      -99.90      -99.90      -99.90    
       -99.90      -99.90      -99.90      -99.90      -99.90      -99.90      -99.90      -99.90      -99.90      -99.90    
       -99.90      -99.90      -99.90      -99.90      -99.90      -99.90      -99.90      -99.90      -99.90      -99.90    
  12   -99.90      -99.90      -99.90      -99.90      -99.90      -99.90      -99.90      -99.90      -99.90      -99.90    
       -99.90      -99.90      -99.90      -99.90      -99.90      -99.90      -99.90      -99.90      -99.90      -99.90    
       -99.90      -99.90      -99.90      -99.90      -99.90      -99.90      -99.90      -99.90      -99.90      -99.90    
       -99.90      -99.90      -99.90      -99.90      -99.90      -99.90      -99.90      -99.90      -99.90      -99.90    
  13   -99.90      -99.90      -99.90      -99.90      -99.90      -99.90      -99.90      -99.90      -99.90      -99.90    
       -99.90      -99.90      -99.90      -99.90      -99.90      -99.90      -99.90      -99.90      -99.90      -99.90    
       -99.90      -99.90      -99.90      -99.90      -99.90      -99.90      -99.90      -99.90      -99.90      -99.90    
       -99.90      -99.90      -99.90      -99.90      -99.90      -99.90      -99.90      -99.90      -99.90      -99.90    
  14   -99.90      -99.90      -99.90      -99.90      -99.90      -99.90      -99.90      -99.90      -99.90      -99.90    
       -99.90      -99.90      -99.90      -99.90      -99.90      -99.90      -99.90      -99.90      -99.90      -99.90    
       -99.90      -99.90      -99.90      -99.90      -99.90      -99.90      -99.90      -99.90      -99.90      -99.90    
       -99.90      -99.90      -99.90      -99.90      -99.90      -99.90      -99.90      -99.90      -99.90      -99.90    
  15   -99.90      -99.90      -99.90      -99.90      -99.90      -99.90      -99.90      -99.90      -99.90      -99.90    
       -99.90      -99.90      -99.90      -99.90      -99.90      -99.90      -99.90      -99.90      -99.90      -99.90    
       -99.90      -99.90      -99.90      -99.90      -99.90      -99.90      -99.90      -99.90      -99.90      -99.90    
       -99.90      -99.90      -99.90      -99.90      -99.90      -99.90      -99.90      -99.90      -99.90      -99.90    
  16   -99.90      -99.90      -99.90      -99.90      -99.90      -99.90      -99.90      -99.90      -99.90      -99.90    
       -99.90      -99.90      -99.90      -99.90      -99.90      -99.90      -99.90      -99.90      -99.90      -99.90    
       -99.90      -99.90      -99.90      -99.90      -99.90      -99.90      -99.90      -99.90      -99.90      -99.90    
       -99.90      -99.90      -99.90      -99.90      -99.90      -99.90      -99.90      -99.90      -99.90      -99.90    
  17   -99.90      -99.90      -99.90      -99.90      -99.90      -99.90      -99.90      -99.90      -99.90      -99.90    
       -99.90      -99.90      -99.90      -99.90      -99.90      -99.90      -99.90      -99.90      -99.90      -99.90    
       -99.90      -99.90      -99.90      -99.90      -99.90      -99.90      -99.90      -99.90      -99.90      -99.90    
       -99.90      -99.90      -99.90      -99.90      -99.90      -99.90      -99.90      -99.90      -99.90      -99.90    
  18   -99.90      -99.90      -99.90      -99.90      -99.90      -99.90      -99.90      -99.90      -99.90      -99.90    
       -99.90      -99.90      -99.90      -99.90      -99.90      -99.90      -99.90      -99.90      -99.90      -99.90    
       -99.90      -99.90      -99.90      -99.90      -99.90      -99.90      -99.90      -99.90      -99.90      -99.90    
       -99.90      -99.90      -99.90      -99.90      -99.90      -99.90      -99.90      -99.90      -99.90      -99.90    
  19   -99.90      -99.90      -99.90      -99.90      -99.90      -99.90      -99.90      -99.90      -99.90      -99.90    
       -99.90      -99.90      -99.90      -99.90      -99.90      -99.90      -99.90      -99.90      -99.90      -99.90    
       -99.90      -99.90      -99.90      -99.90      -99.90      -99.90      -99.90      -99.90      -99.90      -99.90    
       -99.90      -99.90      -99.90      -99.90      -99.90      -99.90      -99.90      -99.90      -99.90      -99.90    
  20   -99.90      -99.90      -99.90      -99.90      -99.90      -99.90      -99.90      -99.90      -99.90      -99.90    
       -99.90      -99.90      -99.90      -99.90      -99.90      -99.90      -99.90      -99.90      -99.90      -99.90    
       -99.90      -99.90      -99.90      -99.90      -99.90      -99.90      -99.90      -99.90      -99.90      -99.90    
       -99.90      -99.90      -99.90      -99.90      -99.90      -99.90      -99.90      -99.90      -99.90      -99.90    
  21   -99.90      -99.90      -99.90      -99.90      -99.90      -99.90      -99.90      -99.90      -99.90      -99.90    
       -99.90      -99.90      -99.90      -99.90      -99.90      -99.90      -99.90      -99.90      -99.90      -99.90    
       -99.90      -99.90      -99.90      -99.90      -99.90      -99.90      -99.90      -99.90      -99.90      -99.90    
       -99.90      -99.90      -99.90      -99.90      -99.90      -99.90      -99.90      -99.90      -99.90      -99.90    
  22   -99.90      -99.90      -99.90      -99.90      -99.90      -99.90      -99.90      -99.90      -99.90      -99.90    
       -99.90      -99.90      -99.90      -99.90      -99.90      -99.90      -99.90      -99.90      -99.90      -99.90    
       -99.90      -99.90      -99.90      -99.90      -99.90      -99.90      -99.90      -99.90      -99.90      -99.90    
       -99.90      -99.90      -99.90      -99.90      -99.90      -99.90      -99.90      -99.90      -99.90      -99.90    
  23   -99.90      -99.90      -99.90      -99.90      -99.90      -99.90      -99.90      -99.90      -99.90      -99.90    
       -99.90      -99.90      -99.90      -99.90      -99.90      -99.90      -99.90      -99.90      -99.90      -99.90    
       -99.90      -99.90      -99.90      -99.90      -99.90      -99.90      -99.90      -99.90      -99.90      -99.90    
       -99.90      -99.90      -99.90      -99.90      -99.90      -99.90      -99.90      -99.90      -99.90      -99.90    
  24   -99.90      -99.90      -99.90      -99.90      -99.90      -99.90      -99.90      -99.90      -99.90      -99.90    
       -99.90      -99.90      -99.90      -99.90      -99.90      -99.90      -99.90      -99.90      -99.90      -99.90    
       -99.90      -99.90      -99.90      -99.90      -99.90      -99.90      -99.90      -99.90      -99.90      -99.90    
       -99.90      -99.90      -99.90      -99.90      -99.90      -99.90      -99.90      -99.90      -99.90      -99.90    
  25   -99.90      -99.90      -99.90      -99.90      -99.90      -99.90      -99.90      -99.90      -99.90      -99.90    
       -99.90      -99.90      -99.90      -99.90      -99.90      -99.90      -99.90      -99.90      -99.90      -99.90    
       -99.90      -99.90      -99.90      -99.90      -99.90      -99.90      -99.90      -99.90      -99.90      -99.90    
       -99.90      -99.90      -99.90      -99.90      -99.90      -99.90      -99.90      -99.90      -99.90      -99.90    
  26   -99.90      -99.90      -99.90      -99.90      -99.90      -99.90      -99.90      -99.90      -99.90      -99.90    
       -99.90      -99.90      -99.90      -99.90      -99.90      -99.90      -99.90      -99.90      -99.90      -99.90    
       -99.90      -99.90      -99.90      -99.90      -99.90      -99.90      -99.90      -99.90      -99.90      -99.90    
       -99.90      -99.90      -99.90      -99.90      -99.90      -99.90      -99.90      -99.90      -99.90      -99.90    
  27   -99.90      -99.90      -99.90      -99.90      -99.90      -99.90      -99.90      -99.90      -99.90      -99.90    
       -99.90      -99.90      -99.90      -99.90      -99.90      -99.90      -99.90      -99.90      -99.90      -99.90    
       -99.90      -99.90      -99.90      -99.90      -99.90      -99.90      -99.90      -99.90      -99.90      -99.90    
       -99.90      -99.90      -99.90      -99.90      -99.90      -99.90      -99.90      -99.90      -99.90      -99.90    
  28   -99.90      -99.90      -99.90      -99.90      -99.90      -99.90      -99.90      -99.90      -99.90      -99.90    
       -99.90      -99.90      -99.90      -99.90      -99.90      -99.90      -99.90      -99.90      -99.90      -99.90    
       -99.90      -99.90      -99.90      -99.90      -99.90      -99.90      -99.90      -99.90      -99.90      -99.90    
       -99.90      -99.90      -99.90      -99.90      -99.90      -99.90      -99.90      -99.90      -99.90      -99.90    
  29   -99.90      -99.90      -99.90      -99.90      -99.90      -99.90      -99.90      -99.90      -99.90      -99.90    
       -99.90      -99.90      -99.90      -99.90      -99.90      -99.90      -99.90      -99.90      -99.90      -99.90    
       -99.90      -99.90      -99.90      -99.90      -99.90      -99.90      -99.90      -99.90      -99.90      -99.90    
       -99.90      -99.90      -99.90      -99.90      -99.90      -99.90      -99.90      -99.90      -99.90      -99.90    
  30   -99.90      -99.90      -99.90      -99.90      -99.90      -99.90      -99.90      -99.90      -99.90      -99.90    
       -99.90      -99.90      -99.90      -99.90      -99.90      -99.90      -99.90      -99.90      -99.90      -99.90    
       -99.90      -99.90      -99.90      -99.90      -99.90      -99.90      -99.90      -99.90      -99.90      -99.90    
       -99.90      -99.90      -99.90      -99.90      -99.90      -99.90      -99.90      -99.90      -99.90      -99.90    
  31   -99.90      -99.90      -99.90      -99.90      -99.90      -99.90      -99.90      -99.90      -99.90      -99.90    
       -99.90      -99.90      -99.90      -99.90      -99.90      -99.90      -99.90      -99.90      -99.90      -99.90    
       -99.90      -99.90      -99.90      -99.90      -99.90      -99.90      -99.90      -99.90      -99.90      -99.90    
       -99.90      -99.90      -99.90      -99.90      -99.90      -99.90      -99.90      -99.90      -99.90      -99.90    
  32   -99.90      -99.90      -99.90      -99.90      -99.90      -99.90      -99.90      -99.90      -99.90      -99.90    
       -99.90      -99.90      -99.90      -99.90      -99.90      -99.90      -99.90      -99.90      -99.90      -99.90    
       -99.90      -99.90      -99.90      -99.90      -99.90      -99.90      -99.90      -99.90      -99.90      -99.90    
       -99.90      -99.90      -99.90      -99.90      -99.90      -99.90      -99.90      -99.90      -99.90      -99.90    
  33   -99.90      -99.90      -99.90      -99.90      -99.90      -99.90      -99.90      -99.90      -99.90      -99.90    
       -99.90      -99.90      -99.90      -99.90      -99.90      -99.90      -99.90      -99.90      -99.90      -99.90    
       -99.90      -99.90      -99.90      -99.90      -99.90      -99.90      -99.90      -99.90      -99.90      -99.90    
       -99.90      -99.90      -99.90      -99.90      -99.90      -99.90      -99.90      -99.90      -99.90      -99.90    
  34   -99.90      -99.90      -99.90      -99.90      -99.90      -99.90      -99.90      -99.90      -99.90      -99.90    
       -99.90      -99.90      -99.90      -99.90      -99.90      -99.90      -99.90      -99.90      -99.90      -99.90    
       -99.90      -99.90      -99.90      -99.90      -99.90      -99.90      -99.90      -99.90      -99.90      -99.90    
       -99.90      -99.90      -99.90      -99.90      -99.90      -99.90      -99.90      -99.90      -99.90      -99.90    
  35   -99.90      -99.90      -99.90      -99.90      -99.90      -99.90      -99.90      -99.90      -99.90      -99.90    
       -99.90      -99.90      -99.90      -99.90      -99.90      -99.90      -99.90      -99.90      -99.90      -99.90    
       -99.90      -99.90      -99.90      -99.90      -99.90      -99.90      -99.90      -99.90      -99.90      -99.90    
       -99.90      -99.90      -99.90      -99.90      -99.90      -99.90      -99.90      -99.90      -99.90      -99.90    
  36   -99.90      -99.90      -99.90      -99.90      -99.90      -99.90      -99.90      -99.90      -99.90      -99.90    
       -99.90      -99.90      -99.90      -99.90      -99.90      -99.90      -99.90      -99.90      -99.90      -99.90    
       -99.90      -99.90      -99.90      -99.90      -99.90      -99.90      -99.90      -99.90      -99.90      -99.90    
       -99.90      -99.90      -99.90      -99.90      -99.90      -99.90      -99.90      -99.90      -99.90      -99.90    
  37   -99.90      -99.90      -99.90      -99.90      -99.90      -99.90      -99.90      -99.90      -99.90      -99.90    
       -99.90      -99.90      -99.90      -99.90      -99.90      -99.90      -99.90      -99.90      -99.90      -99.90    
       -99.90      -99.90      -99.90      -99.90      -99.90      -99.90      -99.90      -99.90      -99.90      -99.90    
       -99.90      -99.90      -99.90      -99.90      -99.90      -99.90      -99.90      -99.90      -99.90      -99.90    
  38   -99.90      -99.90      -99.90      -99.90      -99.90      -99.90      -99.90      -99.90      -99.90      -99.90    
       -99.90      -99.90      -99.90      -99.90      -99.90      -99.90      -99.90      -99.90      -99.90      -99.90    
       -99.90      -99.90      -99.90      -99.90      -99.90      -99.90      -99.90      -99.90      -99.90      -99.90    
       -99.90      -99.90      -99.90      -99.90      -99.90      -99.90      -99.90      -99.90      -99.90      -99.90    
  39   -99.90      -99.90      -99.90      -99.90      -99.90      -99.90      -99.90      -99.90      -99.90      -99.90    
       -99.90      -99.90      -99.90      -99.90      -99.90      -99.90      -99.90      -99.90      -99.90      -99.90    
       -99.90      -99.90      -99.90      -99.90      -99.90      -99.90      -99.90      -99.90      -99.90      -99.90    
       -99.90      -99.90      -99.90      -99.90      -99.90      -99.90      -99.90      -99.90      -99.90      -99.90    
  40   -99.90      -99.90      -99.90      -99.90      -99.90      -99.90      -99.90      -99.90      -99.90      -99.90    
       -99.90      -99.90      -99.90      -99.90      -99.90      -99.90      -99.90      -99.90      -99.90      -99.90    
       -99.90      -99.90      -99.90      -99.90      -99.90      -99.90      -99.90      -99.90      -99.90      -99.90    
       -99.90      -99.90      -99.90      -99.90      -99.90      -99.90      -99.90      -99.90      -99.90      -99.90    
1
              HEAD IN LAYER 6 AT END OF TIME STEP 1 IN STRESS PERIOD 3
  ---------------------------------------------------------------------------

            1           2           3           4           5           6           7           8           9          10
           11          12          13          14          15          16          17          18          19          20
           21          22          23          24          25          26          27          28          29          30
           31          32          33          34          35          36          37          38          39          40
 ........................................................................................................................
   1    47.43       45.73       40.77      -99.90      -99.90      -99.90      -99.90      -99.90      -99.90      -99.90    
       -99.90      -99.90      -99.90      -99.90      -99.90      -99.90      -99.90      -99.90      -99.90      -99.90    
       -99.90      -99.90      -99.90      -99.90      -99.90      -99.90      -99.90      -99.90      -99.90      -99.90    
       -99.90      -99.90      -99.90      -99.90      -99.90      -99.90      -99.90      -99.90      -99.90      -99.90    
   2    45.73       44.32      -99.90      -99.90      -99.90      -99.90      -99.90      -99.90      -99.90      -99.90    
       -99.90      -99.90      -99.90      -99.90      -99.90      -99.90      -99.90      -99.90      -99.90      -99.90    
       -99.90      -99.90      -99.90      -99.90      -99.90      -99.90      -99.90      -99.90      -99.90      -99.90    
       -99.90      -99.90      -99.90      -99.90      -99.90      -99.90      -99.90      -99.90      -99.90      -99.90    
   3    40.77      -99.90      -99.90      -99.90      -99.90      -99.90      -99.90      -99.90      -99.90      -99.90    
       -99.90      -99.90      -99.90      -99.90      -99.90      -99.90      -99.90      -99.90      -99.90      -99.90    
       -99.90      -99.90      -99.90      -99.90      -99.90      -99.90      -99.90      -99.90      -99.90      -99.90    
       -99.90      -99.90      -99.90      -99.90      -99.90      -99.90      -99.90      -99.90      -99.90      -99.90    
   4   -99.90      -99.90      -99.90      -99.90      -99.90      -99.90      -99.90      -99.90      -99.90      -99.90    
       -99.90      -99.90      -99.90      -99.90      -99.90      -99.90      -99.90      -99.90      -99.90      -99.90    
       -99.90      -99.90      -99.90      -99.90      -99.90      -99.90      -99.90      -99.90      -99.90      -99.90    
       -99.90      -99.90      -99.90      -99.90      -99.90      -99.90      -99.90      -99.90      -99.90      -99.90    
   5   -99.90      -99.90      -99.90      -99.90      -99.90      -99.90      -99.90      -99.90      -99.90      -99.90    
       -99.90      -99.90      -99.90      -99.90      -99.90      -99.90      -99.90      -99.90      -99.90      -99.90    
       -99.90      -99.90      -99.90      -99.90      -99.90      -99.90      -99.90      -99.90      -99.90      -99.90    
       -99.90      -99.90      -99.90      -99.90      -99.90      -99.90      -99.90      -99.90      -99.90      -99.90    
   6   -99.90      -99.90      -99.90      -99.90      -99.90      -99.90      -99.90      -99.90      -99.90      -99.90    
       -99.90      -99.90      -99.90      -99.90      -99.90      -99.90      -99.90      -99.90      -99.90      -99.90    
       -99.90      -99.90      -99.90      -99.90      -99.90      -99.90      -99.90      -99.90      -99.90      -99.90    
       -99.90      -99.90      -99.90      -99.90      -99.90      -99.90      -99.90      -99.90      -99.90      -99.90    
   7   -99.90      -99.90      -99.90      -99.90      -99.90      -99.90      -99.90      -99.90      -99.90      -99.90    
       -99.90      -99.90      -99.90      -99.90      -99.90      -99.90      -99.90      -99.90      -99.90      -99.90    
       -99.90      -99.90      -99.90      -99.90      -99.90      -99.90      -99.90      -99.90      -99.90      -99.90    
       -99.90      -99.90      -99.90      -99.90      -99.90      -99.90      -99.90      -99.90      -99.90      -99.90    
   8   -99.90      -99.90      -99.90      -99.90      -99.90      -99.90      -99.90      -99.90      -99.90      -99.90    
       -99.90      -99.90      -99.90      -99.90      -99.90      -99.90      -99.90      -99.90      -99.90      -99.90    
       -99.90      -99.90      -99.90      -99.90      -99.90      -99.90      -99.90      -99.90      -99.90      -99.90    
       -99.90      -99.90      -99.90      -99.90      -99.90      -99.90      -99.90      -99.90      -99.90      -99.90    
   9   -99.90      -99.90      -99.90      -99.90      -99.90      -99.90      -99.90      -99.90      -99.90      -99.90    
       -99.90      -99.90      -99.90      -99.90      -99.90      -99.90      -99.90      -99.90      -99.90      -99.90    
       -99.90      -99.90      -99.90      -99.90      -99.90      -99.90      -99.90      -99.90      -99.90      -99.90    
       -99.90      -99.90      -99.90      -99.90      -99.90      -99.90      -99.90      -99.90      -99.90      -99.90    
  10   -99.90      -99.90      -99.90      -99.90      -99.90      -99.90      -99.90      -99.90      -99.90      -99.90    
       -99.90      -99.90      -99.90      -99.90      -99.90      -99.90      -99.90      -99.90      -99.90      -99.90    
       -99.90      -99.90      -99.90      -99.90      -99.90      -99.90      -99.90      -99.90      -99.90      -99.90    
       -99.90      -99.90      -99.90      -99.90      -99.90      -99.90      -99.90      -99.90      -99.90      -99.90    
  11   -99.90      -99.90      -99.90      -99.90      -99.90      -99.90      -99.90      -99.90      -99.90      -99.90    
       -99.90      -99.90      -99.90      -99.90      -99.90      -99.90      -99.90      -99.90      -99.90      -99.90    
       -99.90      -99.90      -99.90      -99.90      -99.90      -99.90      -99.90      -99.90      -99.90      -99.90    
       -99.90      -99.90      -99.90      -99.90      -99.90      -99.90      -99.90      -99.90      -99.90      -99.90    
  12   -99.90      -99.90      -99.90      -99.90      -99.90      -99.90      -99.90      -99.90      -99.90      -99.90    
       -99.90      -99.90      -99.90      -99.90      -99.90      -99.90      -99.90      -99.90      -99.90      -99.90    
       -99.90      -99.90      -99.90      -99.90      -99.90      -99.90      -99.90      -99.90      -99.90      -99.90    
       -99.90      -99.90      -99.90      -99.90      -99.90      -99.90      -99.90      -99.90      -99.90      -99.90    
  13   -99.90      -99.90      -99.90      -99.90      -99.90      -99.90      -99.90      -99.90      -99.90      -99.90    
       -99.90      -99.90      -99.90      -99.90      -99.90      -99.90      -99.90      -99.90      -99.90      -99.90    
       -99.90      -99.90      -99.90      -99.90      -99.90      -99.90      -99.90      -99.90      -99.90      -99.90    
       -99.90      -99.90      -99.90      -99.90      -99.90      -99.90      -99.90      -99.90      -99.90      -99.90    
  14   -99.90      -99.90      -99.90      -99.90      -99.90      -99.90      -99.90      -99.90      -99.90      -99.90    
       -99.90      -99.90      -99.90      -99.90      -99.90      -99.90      -99.90      -99.90      -99.90      -99.90    
       -99.90      -99.90      -99.90      -99.90      -99.90      -99.90      -99.90      -99.90      -99.90      -99.90    
       -99.90      -99.90      -99.90      -99.90      -99.90      -99.90      -99.90      -99.90      -99.90      -99.90    
  15   -99.90      -99.90      -99.90      -99.90      -99.90      -99.90      -99.90      -99.90      -99.90      -99.90    
       -99.90      -99.90      -99.90      -99.90      -99.90      -99.90      -99.90      -99.90      -99.90      -99.90    
       -99.90      -99.90      -99.90      -99.90      -99.90      -99.90      -99.90      -99.90      -99.90      -99.90    
       -99.90      -99.90      -99.90      -99.90      -99.90      -99.90      -99.90      -99.90      -99.90      -99.90    
  16   -99.90      -99.90      -99.90      -99.90      -99.90      -99.90      -99.90      -99.90      -99.90      -99.90    
       -99.90      -99.90      -99.90      -99.90      -99.90      -99.90      -99.90      -99.90      -99.90      -99.90    
       -99.90      -99.90      -99.90      -99.90      -99.90      -99.90      -99.90      -99.90      -99.90      -99.90    
       -99.90      -99.90      -99.90      -99.90      -99.90      -99.90      -99.90      -99.90      -99.90      -99.90    
  17   -99.90      -99.90      -99.90      -99.90      -99.90      -99.90      -99.90      -99.90      -99.90      -99.90    
       -99.90      -99.90      -99.90      -99.90      -99.90      -99.90      -99.90      -99.90      -99.90      -99.90    
       -99.90      -99.90      -99.90      -99.90      -99.90      -99.90      -99.90      -99.90      -99.90      -99.90    
       -99.90      -99.90      -99.90      -99.90      -99.90      -99.90      -99.90      -99.90      -99.90      -99.90    
  18   -99.90      -99.90      -99.90      -99.90      -99.90      -99.90      -99.90      -99.90      -99.90      -99.90    
       -99.90      -99.90      -99.90      -99.90      -99.90      -99.90      -99.90      -99.90      -99.90      -99.90    
       -99.90      -99.90      -99.90      -99.90      -99.90      -99.90      -99.90      -99.90      -99.90      -99.90    
       -99.90      -99.90      -99.90      -99.90      -99.90      -99.90      -99.90      -99.90      -99.90      -99.90    
  19   -99.90      -99.90      -99.90      -99.90      -99.90      -99.90      -99.90      -99.90      -99.90      -99.90    
       -99.90      -99.90      -99.90      -99.90      -99.90      -99.90      -99.90      -99.90      -99.90      -99.90    
       -99.90      -99.90      -99.90      -99.90      -99.90      -99.90      -99.90      -99.90      -99.90      -99.90    
       -99.90      -99.90      -99.90      -99.90      -99.90      -99.90      -99.90      -99.90      -99.90      -99.90    
  20   -99.90      -99.90      -99.90      -99.90      -99.90      -99.90      -99.90      -99.90      -99.90      -99.90    
       -99.90      -99.90      -99.90      -99.90      -99.90      -99.90      -99.90      -99.90      -99.90      -99.90    
       -99.90      -99.90      -99.90      -99.90      -99.90      -99.90      -99.90      -99.90      -99.90      -99.90    
       -99.90      -99.90      -99.90      -99.90      -99.90      -99.90      -99.90      -99.90      -99.90      -99.90    
  21   -99.90      -99.90      -99.90      -99.90      -99.90      -99.90      -99.90      -99.90      -99.90      -99.90    
       -99.90      -99.90      -99.90      -99.90      -99.90      -99.90      -99.90      -99.90      -99.90      -99.90    
       -99.90      -99.90      -99.90      -99.90      -99.90      -99.90      -99.90      -99.90      -99.90      -99.90    
       -99.90      -99.90      -99.90      -99.90      -99.90      -99.90      -99.90      -99.90      -99.90      -99.90    
  22   -99.90      -99.90      -99.90      -99.90      -99.90      -99.90      -99.90      -99.90      -99.90      -99.90    
       -99.90      -99.90      -99.90      -99.90      -99.90      -99.90      -99.90      -99.90      -99.90      -99.90    
       -99.90      -99.90      -99.90      -99.90      -99.90      -99.90      -99.90      -99.90      -99.90      -99.90    
       -99.90      -99.90      -99.90      -99.90      -99.90      -99.90      -99.90      -99.90      -99.90      -99.90    
  23   -99.90      -99.90      -99.90      -99.90      -99.90      -99.90      -99.90      -99.90      -99.90      -99.90    
       -99.90      -99.90      -99.90      -99.90      -99.90      -99.90      -99.90      -99.90      -99.90      -99.90    
       -99.90      -99.90      -99.90      -99.90      -99.90      -99.90      -99.90      -99.90      -99.90      -99.90    
       -99.90      -99.90      -99.90      -99.90      -99.90      -99.90      -99.90      -99.90      -99.90      -99.90    
  24   -99.90      -99.90      -99.90      -99.90      -99.90      -99.90      -99.90      -99.90      -99.90      -99.90    
       -99.90      -99.90      -99.90      -99.90      -99.90      -99.90      -99.90      -99.90      -99.90      -99.90    
       -99.90      -99.90      -99.90      -99.90      -99.90      -99.90      -99.90      -99.90      -99.90      -99.90    
       -99.90      -99.90      -99.90      -99.90      -99.90      -99.90      -99.90      -99.90      -99.90      -99.90    
  25   -99.90      -99.90      -99.90      -99.90      -99.90      -99.90      -99.90      -99.90      -99.90      -99.90    
       -99.90      -99.90      -99.90      -99.90      -99.90      -99.90      -99.90      -99.90      -99.90      -99.90    
       -99.90      -99.90      -99.90      -99.90      -99.90      -99.90      -99.90      -99.90      -99.90      -99.90    
       -99.90      -99.90      -99.90      -99.90      -99.90      -99.90      -99.90      -99.90      -99.90      -99.90    
  26   -99.90      -99.90      -99.90      -99.90      -99.90      -99.90      -99.90      -99.90      -99.90      -99.90    
       -99.90      -99.90      -99.90      -99.90      -99.90      -99.90      -99.90      -99.90      -99.90      -99.90    
       -99.90      -99.90      -99.90      -99.90      -99.90      -99.90      -99.90      -99.90      -99.90      -99.90    
       -99.90      -99.90      -99.90      -99.90      -99.90      -99.90      -99.90      -99.90      -99.90      -99.90    
  27   -99.90      -99.90      -99.90      -99.90      -99.90      -99.90      -99.90      -99.90      -99.90      -99.90    
       -99.90      -99.90      -99.90      -99.90      -99.90      -99.90      -99.90      -99.90      -99.90      -99.90    
       -99.90      -99.90      -99.90      -99.90      -99.90      -99.90      -99.90      -99.90      -99.90      -99.90    
       -99.90      -99.90      -99.90      -99.90      -99.90      -99.90      -99.90      -99.90      -99.90      -99.90    
  28   -99.90      -99.90      -99.90      -99.90      -99.90      -99.90      -99.90      -99.90      -99.90      -99.90    
       -99.90      -99.90      -99.90      -99.90      -99.90      -99.90      -99.90      -99.90      -99.90      -99.90    
       -99.90      -99.90      -99.90      -99.90      -99.90      -99.90      -99.90      -99.90      -99.90      -99.90    
       -99.90      -99.90      -99.90      -99.90      -99.90      -99.90      -99.90      -99.90      -99.90      -99.90    
  29   -99.90      -99.90      -99.90      -99.90      -99.90      -99.90      -99.90      -99.90      -99.90      -99.90    
       -99.90      -99.90      -99.90      -99.90      -99.90      -99.90      -99.90      -99.90      -99.90      -99.90    
       -99.90      -99.90      -99.90      -99.90      -99.90      -99.90      -99.90      -99.90      -99.90      -99.90    
       -99.90      -99.90      -99.90      -99.90      -99.90      -99.90      -99.90      -99.90      -99.90      -99.90    
  30   -99.90      -99.90      -99.90      -99.90      -99.90      -99.90      -99.90      -99.90      -99.90      -99.90    
       -99.90      -99.90      -99.90      -99.90      -99.90      -99.90      -99.90      -99.90      -99.90      -99.90    
       -99.90      -99.90      -99.90      -99.90      -99.90      -99.90      -99.90      -99.90      -99.90      -99.90    
       -99.90      -99.90      -99.90      -99.90      -99.90      -99.90      -99.90      -99.90      -99.90      -99.90    
  31   -99.90      -99.90      -99.90      -99.90      -99.90      -99.90      -99.90      -99.90      -99.90      -99.90    
       -99.90      -99.90      -99.90      -99.90      -99.90      -99.90      -99.90      -99.90      -99.90      -99.90    
       -99.90      -99.90      -99.90      -99.90      -99.90      -99.90      -99.90      -99.90      -99.90      -99.90    
       -99.90      -99.90      -99.90      -99.90      -99.90      -99.90      -99.90      -99.90      -99.90      -99.90    
  32   -99.90      -99.90      -99.90      -99.90      -99.90      -99.90      -99.90      -99.90      -99.90      -99.90    
       -99.90      -99.90      -99.90      -99.90      -99.90      -99.90      -99.90      -99.90      -99.90      -99.90    
       -99.90      -99.90      -99.90      -99.90      -99.90      -99.90      -99.90      -99.90      -99.90      -99.90    
       -99.90      -99.90      -99.90      -99.90      -99.90      -99.90      -99.90      -99.90      -99.90      -99.90    
  33   -99.90      -99.90      -99.90      -99.90      -99.90      -99.90      -99.90      -99.90      -99.90      -99.90    
       -99.90      -99.90      -99.90      -99.90      -99.90      -99.90      -99.90      -99.90      -99.90      -99.90    
       -99.90      -99.90      -99.90      -99.90      -99.90      -99.90      -99.90      -99.90      -99.90      -99.90    
       -99.90      -99.90      -99.90      -99.90      -99.90      -99.90      -99.90      -99.90      -99.90      -99.90    
  34   -99.90      -99.90      -99.90      -99.90      -99.90      -99.90      -99.90      -99.90      -99.90      -99.90    
       -99.90      -99.90      -99.90      -99.90      -99.90      -99.90      -99.90      -99.90      -99.90      -99.90    
       -99.90      -99.90      -99.90      -99.90      -99.90      -99.90      -99.90      -99.90      -99.90      -99.90    
       -99.90      -99.90      -99.90      -99.90      -99.90      -99.90      -99.90      -99.90      -99.90      -99.90    
  35   -99.90      -99.90      -99.90      -99.90      -99.90      -99.90      -99.90      -99.90      -99.90      -99.90    
       -99.90      -99.90      -99.90      -99.90      -99.90      -99.90      -99.90      -99.90      -99.90      -99.90    
       -99.90      -99.90      -99.90      -99.90      -99.90      -99.90      -99.90      -99.90      -99.90      -99.90    
       -99.90      -99.90      -99.90      -99.90      -99.90      -99.90      -99.90      -99.90      -99.90      -99.90    
  36   -99.90      -99.90      -99.90      -99.90      -99.90      -99.90      -99.90      -99.90      -99.90      -99.90    
       -99.90      -99.90      -99.90      -99.90      -99.90      -99.90      -99.90      -99.90      -99.90      -99.90    
       -99.90      -99.90      -99.90      -99.90      -99.90      -99.90      -99.90      -99.90      -99.90      -99.90    
       -99.90      -99.90      -99.90      -99.90      -99.90      -99.90      -99.90      -99.90      -99.90      -99.90    
  37   -99.90      -99.90      -99.90      -99.90      -99.90      -99.90      -99.90      -99.90      -99.90      -99.90    
       -99.90      -99.90      -99.90      -99.90      -99.90      -99.90      -99.90      -99.90      -99.90      -99.90    
       -99.90      -99.90      -99.90      -99.90      -99.90      -99.90      -99.90      -99.90      -99.90      -99.90    
       -99.90      -99.90      -99.90      -99.90      -99.90      -99.90      -99.90      -99.90      -99.90      -99.90    
  38   -99.90      -99.90      -99.90      -99.90      -99.90      -99.90      -99.90      -99.90      -99.90      -99.90    
       -99.90      -99.90      -99.90      -99.90      -99.90      -99.90      -99.90      -99.90      -99.90      -99.90    
       -99.90      -99.90      -99.90      -99.90      -99.90      -99.90      -99.90      -99.90      -99.90      -99.90    
       -99.90      -99.90      -99.90      -99.90      -99.90      -99.90      -99.90      -99.90      -99.90      -99.90    
  39   -99.90      -99.90      -99.90      -99.90      -99.90      -99.90      -99.90      -99.90      -99.90      -99.90    
       -99.90      -99.90      -99.90      -99.90      -99.90      -99.90      -99.90      -99.90      -99.90      -99.90    
       -99.90      -99.90      -99.90      -99.90      -99.90      -99.90      -99.90      -99.90      -99.90      -99.90    
       -99.90      -99.90      -99.90      -99.90      -99.90      -99.90      -99.90      -99.90      -99.90      -99.90    
  40   -99.90      -99.90      -99.90      -99.90      -99.90      -99.90      -99.90      -99.90      -99.90      -99.90    
       -99.90      -99.90      -99.90      -99.90      -99.90      -99.90      -99.90      -99.90      -99.90      -99.90    
       -99.90      -99.90      -99.90      -99.90      -99.90      -99.90      -99.90      -99.90      -99.90      -99.90    
       -99.90      -99.90      -99.90      -99.90      -99.90      -99.90      -99.90      -99.90      -99.90      -99.90    
1
              HEAD IN LAYER 7 AT END OF TIME STEP 1 IN STRESS PERIOD 3
  ---------------------------------------------------------------------------

            1           2           3           4           5           6           7           8           9          10
           11          12          13          14          15          16          17          18          19          20
           21          22          23          24          25          26          27          28          29          30
           31          32          33          34          35          36          37          38          39          40
 ........................................................................................................................
   1    46.64       44.95       40.60       37.37      -99.90      -99.90      -99.90      -99.90      -99.90      -99.90    
       -99.90      -99.90      -99.90      -99.90      -99.90      -99.90      -99.90      -99.90      -99.90      -99.90    
       -99.90      -99.90      -99.90      -99.90      -99.90      -99.90      -99.90      -99.90      -99.90      -99.90    
       -99.90      -99.90      -99.90      -99.90      -99.90      -99.90      -99.90      -99.90      -99.90      -99.90    
   2    44.95       43.51       39.51       36.65      -99.90      -99.90      -99.90      -99.90      -99.90      -99.90    
       -99.90      -99.90      -99.90      -99.90      -99.90      -99.90      -99.90      -99.90      -99.90      -99.90    
       -99.90      -99.90      -99.90      -99.90      -99.90      -99.90      -99.90      -99.90      -99.90      -99.90    
       -99.90      -99.90      -99.90      -99.90      -99.90      -99.90      -99.90      -99.90      -99.90      -99.90    
   3    40.60       39.51       37.38       35.39      -99.90      -99.90      -99.90      -99.90      -99.90      -99.90    
       -99.90      -99.90      -99.90      -99.90      -99.90      -99.90      -99.90      -99.90      -99.90      -99.90    
       -99.90      -99.90      -99.90      -99.90      -99.90      -99.90      -99.90      -99.90      -99.90      -99.90    
       -99.90      -99.90      -99.90      -99.90      -99.90      -99.90      -99.90      -99.90      -99.90      -99.90    
   4    37.37       36.65       35.39      -99.90      -99.90      -99.90      -99.90      -99.90      -99.90      -99.90    
       -99.90      -99.90      -99.90      -99.90      -99.90      -99.90      -99.90      -99.90      -99.90      -99.90    
       -99.90      -99.90      -99.90      -99.90      -99.90      -99.90      -99.90      -99.90      -99.90      -99.90    
       -99.90      -99.90      -99.90      -99.90      -99.90      -99.90      -99.90      -99.90      -99.90      -99.90    
   5   -99.90      -99.90      -99.90      -99.90      -99.90      -99.90      -99.90      -99.90      -99.90      -99.90    
       -99.90      -99.90      -99.90      -99.90      -99.90      -99.90      -99.90      -99.90      -99.90      -99.90    
       -99.90      -99.90      -99.90      -99.90      -99.90      -99.90      -99.90      -99.90      -99.90      -99.90    
       -99.90      -99.90      -99.90      -99.90      -99.90      -99.90      -99.90      -99.90      -99.90      -99.90    
   6   -99.90      -99.90      -99.90      -99.90      -99.90      -99.90      -99.90      -99.90      -99.90      -99.90    
       -99.90      -99.90      -99.90      -99.90      -99.90      -99.90      -99.90      -99.90      -99.90      -99.90    
       -99.90      -99.90      -99.90      -99.90      -99.90      -99.90      -99.90      -99.90      -99.90      -99.90    
       -99.90      -99.90      -99.90      -99.90      -99.90      -99.90      -99.90      -99.90      -99.90      -99.90    
   7   -99.90      -99.90      -99.90      -99.90      -99.90      -99.90      -99.90      -99.90      -99.90      -99.90    
       -99.90      -99.90      -99.90      -99.90      -99.90      -99.90      -99.90      -99.90      -99.90      -99.90    
       -99.90      -99.90      -99.90      -99.90      -99.90      -99.90      -99.90      -99.90      -99.90      -99.90    
       -99.90      -99.90      -99.90      -99.90      -99.90      -99.90      -99.90      -99.90      -99.90      -99.90    
   8   -99.90      -99.90      -99.90      -99.90      -99.90      -99.90      -99.90      -99.90      -99.90      -99.90    
       -99.90      -99.90      -99.90      -99.90      -99.90      -99.90      -99.90      -99.90      -99.90      -99.90    
       -99.90      -99.90      -99.90      -99.90      -99.90      -99.90      -99.90      -99.90      -99.90      -99.90    
       -99.90      -99.90      -99.90      -99.90      -99.90      -99.90      -99.90      -99.90      -99.90      -99.90    
   9   -99.90      -99.90      -99.90      -99.90      -99.90      -99.90      -99.90      -99.90      -99.90      -99.90    
       -99.90      -99.90      -99.90      -99.90      -99.90      -99.90      -99.90      -99.90      -99.90      -99.90    
       -99.90      -99.90      -99.90      -99.90      -99.90      -99.90      -99.90      -99.90      -99.90      -99.90    
       -99.90      -99.90      -99.90      -99.90      -99.90      -99.90      -99.90      -99.90      -99.90      -99.90    
  10   -99.90      -99.90      -99.90      -99.90      -99.90      -99.90      -99.90      -99.90      -99.90      -99.90    
       -99.90      -99.90      -99.90      -99.90      -99.90      -99.90      -99.90      -99.90      -99.90      -99.90    
       -99.90      -99.90      -99.90      -99.90      -99.90      -99.90      -99.90      -99.90      -99.90      -99.90    
       -99.90      -99.90      -99.90      -99.90      -99.90      -99.90      -99.90      -99.90      -99.90      -99.90    
  11   -99.90      -99.90      -99.90      -99.90      -99.90      -99.90      -99.90      -99.90      -99.90      -99.90    
       -99.90      -99.90      -99.90      -99.90      -99.90      -99.90      -99.90      -99.90      -99.90      -99.90    
       -99.90      -99.90      -99.90      -99.90      -99.90      -99.90      -99.90      -99.90      -99.90      -99.90    
       -99.90      -99.90      -99.90      -99.90      -99.90      -99.90      -99.90      -99.90      -99.90      -99.90    
  12   -99.90      -99.90      -99.90      -99.90      -99.90      -99.90      -99.90      -99.90      -99.90      -99.90    
       -99.90      -99.90      -99.90      -99.90      -99.90      -99.90      -99.90      -99.90      -99.90      -99.90    
       -99.90      -99.90      -99.90      -99.90      -99.90      -99.90      -99.90      -99.90      -99.90      -99.90    
       -99.90      -99.90      -99.90      -99.90      -99.90      -99.90      -99.90      -99.90      -99.90      -99.90    
  13   -99.90      -99.90      -99.90      -99.90      -99.90      -99.90      -99.90      -99.90      -99.90      -99.90    
       -99.90      -99.90      -99.90      -99.90      -99.90      -99.90      -99.90      -99.90      -99.90      -99.90    
       -99.90      -99.90      -99.90      -99.90      -99.90      -99.90      -99.90      -99.90      -99.90      -99.90    
       -99.90      -99.90      -99.90      -99.90      -99.90      -99.90      -99.90      -99.90      -99.90      -99.90    
  14   -99.90      -99.90      -99.90      -99.90      -99.90      -99.90      -99.90      -99.90      -99.90      -99.90    
       -99.90      -99.90      -99.90      -99.90      -99.90      -99.90      -99.90      -99.90      -99.90      -99.90    
       -99.90      -99.90      -99.90      -99.90      -99.90      -99.90      -99.90      -99.90      -99.90      -99.90    
       -99.90      -99.90      -99.90      -99.90      -99.90      -99.90      -99.90      -99.90      -99.90      -99.90    
  15   -99.90      -99.90      -99.90      -99.90      -99.90      -99.90      -99.90      -99.90      -99.90      -99.90    
       -99.90      -99.90      -99.90      -99.90      -99.90      -99.90      -99.90      -99.90      -99.90      -99.90    
       -99.90      -99.90      -99.90      -99.90      -99.90      -99.90      -99.90      -99.90      -99.90      -99.90    
       -99.90      -99.90      -99.90      -99.90      -99.90      -99.90      -99.90      -99.90      -99.90      -99.90    
  16   -99.90      -99.90      -99.90      -99.90      -99.90      -99.90      -99.90      -99.90      -99.90      -99.90    
       -99.90      -99.90      -99.90      -99.90      -99.90      -99.90      -99.90      -99.90      -99.90      -99.90    
       -99.90      -99.90      -99.90      -99.90      -99.90      -99.90      -99.90      -99.90      -99.90      -99.90    
       -99.90      -99.90      -99.90      -99.90      -99.90      -99.90      -99.90      -99.90      -99.90      -99.90    
  17   -99.90      -99.90      -99.90      -99.90      -99.90      -99.90      -99.90      -99.90      -99.90      -99.90    
       -99.90      -99.90      -99.90      -99.90      -99.90      -99.90      -99.90      -99.90      -99.90      -99.90    
       -99.90      -99.90      -99.90      -99.90      -99.90      -99.90      -99.90      -99.90      -99.90      -99.90    
       -99.90      -99.90      -99.90      -99.90      -99.90      -99.90      -99.90      -99.90      -99.90      -99.90    
  18   -99.90      -99.90      -99.90      -99.90      -99.90      -99.90      -99.90      -99.90      -99.90      -99.90    
       -99.90      -99.90      -99.90      -99.90      -99.90      -99.90      -99.90      -99.90      -99.90      -99.90    
       -99.90      -99.90      -99.90      -99.90      -99.90      -99.90      -99.90      -99.90      -99.90      -99.90    
       -99.90      -99.90      -99.90      -99.90      -99.90      -99.90      -99.90      -99.90      -99.90      -99.90    
  19   -99.90      -99.90      -99.90      -99.90      -99.90      -99.90      -99.90      -99.90      -99.90      -99.90    
       -99.90      -99.90      -99.90      -99.90      -99.90      -99.90      -99.90      -99.90      -99.90      -99.90    
       -99.90      -99.90      -99.90      -99.90      -99.90      -99.90      -99.90      -99.90      -99.90      -99.90    
       -99.90      -99.90      -99.90      -99.90      -99.90      -99.90      -99.90      -99.90      -99.90      -99.90    
  20   -99.90      -99.90      -99.90      -99.90      -99.90      -99.90      -99.90      -99.90      -99.90      -99.90    
       -99.90      -99.90      -99.90      -99.90      -99.90      -99.90      -99.90      -99.90      -99.90      -99.90    
       -99.90      -99.90      -99.90      -99.90      -99.90      -99.90      -99.90      -99.90      -99.90      -99.90    
       -99.90      -99.90      -99.90      -99.90      -99.90      -99.90      -99.90      -99.90      -99.90      -99.90    
  21   -99.90      -99.90      -99.90      -99.90      -99.90      -99.90      -99.90      -99.90      -99.90      -99.90    
       -99.90      -99.90      -99.90      -99.90      -99.90      -99.90      -99.90      -99.90      -99.90      -99.90    
       -99.90      -99.90      -99.90      -99.90      -99.90      -99.90      -99.90      -99.90      -99.90      -99.90    
       -99.90      -99.90      -99.90      -99.90      -99.90      -99.90      -99.90      -99.90      -99.90      -99.90    
  22   -99.90      -99.90      -99.90      -99.90      -99.90      -99.90      -99.90      -99.90      -99.90      -99.90    
       -99.90      -99.90      -99.90      -99.90      -99.90      -99.90      -99.90      -99.90      -99.90      -99.90    
       -99.90      -99.90      -99.90      -99.90      -99.90      -99.90      -99.90      -99.90      -99.90      -99.90    
       -99.90      -99.90      -99.90      -99.90      -99.90      -99.90      -99.90      -99.90      -99.90      -99.90    
  23   -99.90      -99.90      -99.90      -99.90      -99.90      -99.90      -99.90      -99.90      -99.90      -99.90    
       -99.90      -99.90      -99.90      -99.90      -99.90      -99.90      -99.90      -99.90      -99.90      -99.90    
       -99.90      -99.90      -99.90      -99.90      -99.90      -99.90      -99.90      -99.90      -99.90      -99.90    
       -99.90      -99.90      -99.90      -99.90      -99.90      -99.90      -99.90      -99.90      -99.90      -99.90    
  24   -99.90      -99.90      -99.90      -99.90      -99.90      -99.90      -99.90      -99.90      -99.90      -99.90    
       -99.90      -99.90      -99.90      -99.90      -99.90      -99.90      -99.90      -99.90      -99.90      -99.90    
       -99.90      -99.90      -99.90      -99.90      -99.90      -99.90      -99.90      -99.90      -99.90      -99.90    
       -99.90      -99.90      -99.90      -99.90      -99.90      -99.90      -99.90      -99.90      -99.90      -99.90    
  25   -99.90      -99.90      -99.90      -99.90      -99.90      -99.90      -99.90      -99.90      -99.90      -99.90    
       -99.90      -99.90      -99.90      -99.90      -99.90      -99.90      -99.90      -99.90      -99.90      -99.90    
       -99.90      -99.90      -99.90      -99.90      -99.90      -99.90      -99.90      -99.90      -99.90      -99.90    
       -99.90      -99.90      -99.90      -99.90      -99.90      -99.90      -99.90      -99.90      -99.90      -99.90    
  26   -99.90      -99.90      -99.90      -99.90      -99.90      -99.90      -99.90      -99.90      -99.90      -99.90    
       -99.90      -99.90      -99.90      -99.90      -99.90      -99.90      -99.90      -99.90      -99.90      -99.90    
       -99.90      -99.90      -99.90      -99.90      -99.90      -99.90      -99.90      -99.90      -99.90      -99.90    
       -99.90      -99.90      -99.90      -99.90      -99.90      -99.90      -99.90      -99.90      -99.90      -99.90    
  27   -99.90      -99.90      -99.90      -99.90      -99.90      -99.90      -99.90      -99.90      -99.90      -99.90    
       -99.90      -99.90      -99.90      -99.90      -99.90      -99.90      -99.90      -99.90      -99.90      -99.90    
       -99.90      -99.90      -99.90      -99.90      -99.90      -99.90      -99.90      -99.90      -99.90      -99.90    
       -99.90      -99.90      -99.90      -99.90      -99.90      -99.90      -99.90      -99.90      -99.90      -99.90    
  28   -99.90      -99.90      -99.90      -99.90      -99.90      -99.90      -99.90      -99.90      -99.90      -99.90    
       -99.90      -99.90      -99.90      -99.90      -99.90      -99.90      -99.90      -99.90      -99.90      -99.90    
       -99.90      -99.90      -99.90      -99.90      -99.90      -99.90      -99.90      -99.90      -99.90      -99.90    
       -99.90      -99.90      -99.90      -99.90      -99.90      -99.90      -99.90      -99.90      -99.90      -99.90    
  29   -99.90      -99.90      -99.90      -99.90      -99.90      -99.90      -99.90      -99.90      -99.90      -99.90    
       -99.90      -99.90      -99.90      -99.90      -99.90      -99.90      -99.90      -99.90      -99.90      -99.90    
       -99.90      -99.90      -99.90      -99.90      -99.90      -99.90      -99.90      -99.90      -99.90      -99.90    
       -99.90      -99.90      -99.90      -99.90      -99.90      -99.90      -99.90      -99.90      -99.90      -99.90    
  30   -99.90      -99.90      -99.90      -99.90      -99.90      -99.90      -99.90      -99.90      -99.90      -99.90    
       -99.90      -99.90      -99.90      -99.90      -99.90      -99.90      -99.90      -99.90      -99.90      -99.90    
       -99.90      -99.90      -99.90      -99.90      -99.90      -99.90      -99.90      -99.90      -99.90      -99.90    
       -99.90      -99.90      -99.90      -99.90      -99.90      -99.90      -99.90      -99.90      -99.90      -99.90    
  31   -99.90      -99.90      -99.90      -99.90      -99.90      -99.90      -99.90      -99.90      -99.90      -99.90    
       -99.90      -99.90      -99.90      -99.90      -99.90      -99.90      -99.90      -99.90      -99.90      -99.90    
       -99.90      -99.90      -99.90      -99.90      -99.90      -99.90      -99.90      -99.90      -99.90      -99.90    
       -99.90      -99.90      -99.90      -99.90      -99.90      -99.90      -99.90      -99.90      -99.90      -99.90    
  32   -99.90      -99.90      -99.90      -99.90      -99.90      -99.90      -99.90      -99.90      -99.90      -99.90    
       -99.90      -99.90      -99.90      -99.90      -99.90      -99.90      -99.90      -99.90      -99.90      -99.90    
       -99.90      -99.90      -99.90      -99.90      -99.90      -99.90      -99.90      -99.90      -99.90      -99.90    
       -99.90      -99.90      -99.90      -99.90      -99.90      -99.90      -99.90      -99.90      -99.90      -99.90    
  33   -99.90      -99.90      -99.90      -99.90      -99.90      -99.90      -99.90      -99.90      -99.90      -99.90    
       -99.90      -99.90      -99.90      -99.90      -99.90      -99.90      -99.90      -99.90      -99.90      -99.90    
       -99.90      -99.90      -99.90      -99.90      -99.90      -99.90      -99.90      -99.90      -99.90      -99.90    
       -99.90      -99.90      -99.90      -99.90      -99.90      -99.90      -99.90      -99.90      -99.90      -99.90    
  34   -99.90      -99.90      -99.90      -99.90      -99.90      -99.90      -99.90      -99.90      -99.90      -99.90    
       -99.90      -99.90      -99.90      -99.90      -99.90      -99.90      -99.90      -99.90      -99.90      -99.90    
       -99.90      -99.90      -99.90      -99.90      -99.90      -99.90      -99.90      -99.90      -99.90      -99.90    
       -99.90      -99.90      -99.90      -99.90      -99.90      -99.90      -99.90      -99.90      -99.90      -99.90    
  35   -99.90      -99.90      -99.90      -99.90      -99.90      -99.90      -99.90      -99.90      -99.90      -99.90    
       -99.90      -99.90      -99.90      -99.90      -99.90      -99.90      -99.90      -99.90      -99.90      -99.90    
       -99.90      -99.90      -99.90      -99.90      -99.90      -99.90      -99.90      -99.90      -99.90      -99.90    
       -99.90      -99.90      -99.90      -99.90      -99.90      -99.90      -99.90      -99.90      -99.90      -99.90    
  36   -99.90      -99.90      -99.90      -99.90      -99.90      -99.90      -99.90      -99.90      -99.90      -99.90    
       -99.90      -99.90      -99.90      -99.90      -99.90      -99.90      -99.90      -99.90      -99.90      -99.90    
       -99.90      -99.90      -99.90      -99.90      -99.90      -99.90      -99.90      -99.90      -99.90      -99.90    
       -99.90      -99.90      -99.90      -99.90      -99.90      -99.90      -99.90      -99.90      -99.90      -99.90    
  37   -99.90      -99.90      -99.90      -99.90      -99.90      -99.90      -99.90      -99.90      -99.90      -99.90    
       -99.90      -99.90      -99.90      -99.90      -99.90      -99.90      -99.90      -99.90      -99.90      -99.90    
       -99.90      -99.90      -99.90      -99.90      -99.90      -99.90      -99.90      -99.90      -99.90      -99.90    
       -99.90      -99.90      -99.90      -99.90      -99.90      -99.90      -99.90      -99.90      -99.90      -99.90    
  38   -99.90      -99.90      -99.90      -99.90      -99.90      -99.90      -99.90      -99.90      -99.90      -99.90    
       -99.90      -99.90      -99.90      -99.90      -99.90      -99.90      -99.90      -99.90      -99.90      -99.90    
       -99.90      -99.90      -99.90      -99.90      -99.90      -99.90      -99.90      -99.90      -99.90      -99.90    
       -99.90      -99.90      -99.90      -99.90      -99.90      -99.90      -99.90      -99.90      -99.90      -99.90    
  39   -99.90      -99.90      -99.90      -99.90      -99.90      -99.90      -99.90      -99.90      -99.90      -99.90    
       -99.90      -99.90      -99.90      -99.90      -99.90      -99.90      -99.90      -99.90      -99.90      -99.90    
       -99.90      -99.90      -99.90      -99.90      -99.90      -99.90      -99.90      -99.90      -99.90      -99.90    
       -99.90      -99.90      -99.90      -99.90      -99.90      -99.90      -99.90      -99.90      -99.90      -99.90    
  40   -99.90      -99.90      -99.90      -99.90      -99.90      -99.90      -99.90      -99.90      -99.90      -99.90    
       -99.90      -99.90      -99.90      -99.90      -99.90      -99.90      -99.90      -99.90      -99.90      -99.90    
       -99.90      -99.90      -99.90      -99.90      -99.90      -99.90      -99.90      -99.90      -99.90      -99.90    
       -99.90      -99.90      -99.90      -99.90      -99.90      -99.90      -99.90      -99.90      -99.90      -99.90    
1
              HEAD IN LAYER 8 AT END OF TIME STEP 1 IN STRESS PERIOD 3
  ---------------------------------------------------------------------------

            1           2           3           4           5           6           7           8           9          10
           11          12          13          14          15          16          17          18          19          20
           21          22          23          24          25          26          27          28          29          30
           31          32          33          34          35          36          37          38          39          40
 ........................................................................................................................
   1    45.95       44.30       40.43       37.33       34.91       32.96       31.38       30.10      -99.90      -99.90    
       -99.90      -99.90      -99.90      -99.90      -99.90      -99.90      -99.90      -99.90      -99.90      -99.90    
       -99.90      -99.90      -99.90      -99.90      -99.90      -99.90      -99.90      -99.90      -99.90      -99.90    
       -99.90      -99.90      -99.90      -99.90      -99.90      -99.90      -99.90      -99.90      -99.90      -99.90    
   2    44.30       42.87       39.37       36.62       34.44       32.64       31.15      -99.90      -99.90      -99.90    
       -99.90      -99.90      -99.90      -99.90      -99.90      -99.90      -99.90      -99.90      -99.90      -99.90    
       -99.90      -99.90      -99.90      -99.90      -99.90      -99.90      -99.90      -99.90      -99.90      -99.90    
       -99.90      -99.90      -99.90      -99.90      -99.90      -99.90      -99.90      -99.90      -99.90      -99.90    
   3    40.43       39.37       37.34       35.37       33.61       32.06       30.74      -99.90      -99.90      -99.90    
       -99.90      -99.90      -99.90      -99.90      -99.90      -99.90      -99.90      -99.90      -99.90      -99.90    
       -99.90      -99.90      -99.90      -99.90      -99.90      -99.90      -99.90      -99.90      -99.90      -99.90    
       -99.90      -99.90      -99.90      -99.90      -99.90      -99.90      -99.90      -99.90      -99.90      -99.90    
   4    37.33       36.62       35.37       33.97       32.60       31.33       30.22      -99.90      -99.90      -99.90    
       -99.90      -99.90      -99.90      -99.90      -99.90      -99.90      -99.90      -99.90      -99.90      -99.90    
       -99.90      -99.90      -99.90      -99.90      -99.90      -99.90      -99.90      -99.90      -99.90      -99.90    
       -99.90      -99.90      -99.90      -99.90      -99.90      -99.90      -99.90      -99.90      -99.90      -99.90    
   5    34.91       34.44       33.61       32.60       31.55       30.53      -99.90      -99.90      -99.90      -99.90    
       -99.90      -99.90      -99.90      -99.90      -99.90      -99.90      -99.90      -99.90      -99.90      -99.90    
       -99.90      -99.90      -99.90      -99.90      -99.90      -99.90      -99.90      -99.90      -99.90      -99.90    
       -99.90      -99.90      -99.90      -99.90      -99.90      -99.90      -99.90      -99.90      -99.90      -99.90    
   6    32.96       32.64       32.06       31.33       30.53      -99.90      -99.90      -99.90      -99.90      -99.90    
       -99.90      -99.90      -99.90      -99.90      -99.90      -99.90      -99.90      -99.90      -99.90      -99.90    
       -99.90      -99.90      -99.90      -99.90      -99.90      -99.90      -99.90      -99.90      -99.90      -99.90    
       -99.90      -99.90      -99.90      -99.90      -99.90      -99.90      -99.90      -99.90      -99.90      -99.90    
   7    31.38       31.15       30.74       30.22      -99.90      -99.90      -99.90      -99.90      -99.90      -99.90    
       -99.90      -99.90      -99.90      -99.90      -99.90      -99.90      -99.90      -99.90      -99.90      -99.90    
       -99.90      -99.90      -99.90      -99.90      -99.90      -99.90      -99.90      -99.90      -99.90      -99.90    
       -99.90      -99.90      -99.90      -99.90      -99.90      -99.90      -99.90      -99.90      -99.90      -99.90    
   8    30.10      -99.90      -99.90      -99.90      -99.90      -99.90      -99.90      -99.90      -99.90      -99.90    
       -99.90      -99.90      -99.90      -99.90      -99.90      -99.90      -99.90      -99.90      -99.90      -99.90    
       -99.90      -99.90      -99.90      -99.90      -99.90      -99.90      -99.90      -99.90      -99.90      -99.90    
       -99.90      -99.90      -99.90      -99.90      -99.90      -99.90      -99.90      -99.90      -99.90      -99.90    
   9   -99.90      -99.90      -99.90      -99.90      -99.90      -99.90      -99.90      -99.90      -99.90      -99.90    
       -99.90      -99.90      -99.90      -99.90      -99.90      -99.90      -99.90      -99.90      -99.90      -99.90    
       -99.90      -99.90      -99.90      -99.90      -99.90      -99.90      -99.90      -99.90      -99.90      -99.90    
       -99.90      -99.90      -99.90      -99.90      -99.90      -99.90      -99.90      -99.90      -99.90      -99.90    
  10   -99.90      -99.90      -99.90      -99.90      -99.90      -99.90      -99.90      -99.90      -99.90      -99.90    
       -99.90      -99.90      -99.90      -99.90      -99.90      -99.90      -99.90      -99.90      -99.90      -99.90    
       -99.90      -99.90      -99.90      -99.90      -99.90      -99.90      -99.90      -99.90      -99.90      -99.90    
       -99.90      -99.90      -99.90      -99.90      -99.90      -99.90      -99.90      -99.90      -99.90      -99.90    
  11   -99.90      -99.90      -99.90      -99.90      -99.90      -99.90      -99.90      -99.90      -99.90      -99.90    
       -99.90      -99.90      -99.90      -99.90      -99.90      -99.90      -99.90      -99.90      -99.90      -99.90    
       -99.90      -99.90      -99.90      -99.90      -99.90      -99.90      -99.90      -99.90      -99.90      -99.90    
       -99.90      -99.90      -99.90      -99.90      -99.90      -99.90      -99.90      -99.90      -99.90      -99.90    
  12   -99.90      -99.90      -99.90      -99.90      -99.90      -99.90      -99.90      -99.90      -99.90      -99.90    
       -99.90      -99.90      -99.90      -99.90      -99.90      -99.90      -99.90      -99.90      -99.90      -99.90    
       -99.90      -99.90      -99.90      -99.90      -99.90      -99.90      -99.90      -99.90      -99.90      -99.90    
       -99.90      -99.90      -99.90      -99.90      -99.90      -99.90      -99.90      -99.90      -99.90      -99.90    
  13   -99.90      -99.90      -99.90      -99.90      -99.90      -99.90      -99.90      -99.90      -99.90      -99.90    
       -99.90      -99.90      -99.90      -99.90      -99.90      -99.90      -99.90      -99.90      -99.90      -99.90    
       -99.90      -99.90      -99.90      -99.90      -99.90      -99.90      -99.90      -99.90      -99.90      -99.90    
       -99.90      -99.90      -99.90      -99.90      -99.90      -99.90      -99.90      -99.90      -99.90      -99.90    
  14   -99.90      -99.90      -99.90      -99.90      -99.90      -99.90      -99.90      -99.90      -99.90      -99.90    
       -99.90      -99.90      -99.90      -99.90      -99.90      -99.90      -99.90      -99.90      -99.90      -99.90    
       -99.90      -99.90      -99.90      -99.90      -99.90      -99.90      -99.90      -99.90      -99.90      -99.90    
       -99.90      -99.90      -99.90      -99.90      -99.90      -99.90      -99.90      -99.90      -99.90      -99.90    
  15   -99.90      -99.90      -99.90      -99.90      -99.90      -99.90      -99.90      -99.90      -99.90      -99.90    
       -99.90      -99.90      -99.90      -99.90      -99.90      -99.90      -99.90      -99.90      -99.90      -99.90    
       -99.90      -99.90      -99.90      -99.90      -99.90      -99.90      -99.90      -99.90      -99.90      -99.90    
       -99.90      -99.90      -99.90      -99.90      -99.90      -99.90      -99.90      -99.90      -99.90      -99.90    
  16   -99.90      -99.90      -99.90      -99.90      -99.90      -99.90      -99.90      -99.90      -99.90      -99.90    
       -99.90      -99.90      -99.90      -99.90      -99.90      -99.90      -99.90      -99.90      -99.90      -99.90    
       -99.90      -99.90      -99.90      -99.90      -99.90      -99.90      -99.90      -99.90      -99.90      -99.90    
       -99.90      -99.90      -99.90      -99.90      -99.90      -99.90      -99.90      -99.90      -99.90      -99.90    
  17   -99.90      -99.90      -99.90      -99.90      -99.90      -99.90      -99.90      -99.90      -99.90      -99.90    
       -99.90      -99.90      -99.90      -99.90      -99.90      -99.90      -99.90      -99.90      -99.90      -99.90    
       -99.90      -99.90      -99.90      -99.90      -99.90      -99.90      -99.90      -99.90      -99.90      -99.90    
       -99.90      -99.90      -99.90      -99.90      -99.90      -99.90      -99.90      -99.90      -99.90      -99.90    
  18   -99.90      -99.90      -99.90      -99.90      -99.90      -99.90      -99.90      -99.90      -99.90      -99.90    
       -99.90      -99.90      -99.90      -99.90      -99.90      -99.90      -99.90      -99.90      -99.90      -99.90    
       -99.90      -99.90      -99.90      -99.90      -99.90      -99.90      -99.90      -99.90      -99.90      -99.90    
       -99.90      -99.90      -99.90      -99.90      -99.90      -99.90      -99.90      -99.90      -99.90      -99.90    
  19   -99.90      -99.90      -99.90      -99.90      -99.90      -99.90      -99.90      -99.90      -99.90      -99.90    
       -99.90      -99.90      -99.90      -99.90      -99.90      -99.90      -99.90      -99.90      -99.90      -99.90    
       -99.90      -99.90      -99.90      -99.90      -99.90      -99.90      -99.90      -99.90      -99.90      -99.90    
       -99.90      -99.90      -99.90      -99.90      -99.90      -99.90      -99.90      -99.90      -99.90      -99.90    
  20   -99.90      -99.90      -99.90      -99.90      -99.90      -99.90      -99.90      -99.90      -99.90      -99.90    
       -99.90      -99.90      -99.90      -99.90      -99.90      -99.90      -99.90      -99.90      -99.90      -99.90    
       -99.90      -99.90      -99.90      -99.90      -99.90      -99.90      -99.90      -99.90      -99.90      -99.90    
       -99.90      -99.90      -99.90      -99.90      -99.90      -99.90      -99.90      -99.90      -99.90      -99.90    
  21   -99.90      -99.90      -99.90      -99.90      -99.90      -99.90      -99.90      -99.90      -99.90      -99.90    
       -99.90      -99.90      -99.90      -99.90      -99.90      -99.90      -99.90      -99.90      -99.90      -99.90    
       -99.90      -99.90      -99.90      -99.90      -99.90      -99.90      -99.90      -99.90      -99.90      -99.90    
       -99.90      -99.90      -99.90      -99.90      -99.90      -99.90      -99.90      -99.90      -99.90      -99.90    
  22   -99.90      -99.90      -99.90      -99.90      -99.90      -99.90      -99.90      -99.90      -99.90      -99.90    
       -99.90      -99.90      -99.90      -99.90      -99.90      -99.90      -99.90      -99.90      -99.90      -99.90    
       -99.90      -99.90      -99.90      -99.90      -99.90      -99.90      -99.90      -99.90      -99.90      -99.90    
       -99.90      -99.90      -99.90      -99.90      -99.90      -99.90      -99.90      -99.90      -99.90      -99.90    
  23   -99.90      -99.90      -99.90      -99.90      -99.90      -99.90      -99.90      -99.90      -99.90      -99.90    
       -99.90      -99.90      -99.90      -99.90      -99.90      -99.90      -99.90      -99.90      -99.90      -99.90    
       -99.90      -99.90      -99.90      -99.90      -99.90      -99.90      -99.90      -99.90      -99.90      -99.90    
       -99.90      -99.90      -99.90      -99.90      -99.90      -99.90      -99.90      -99.90      -99.90      -99.90    
  24   -99.90      -99.90      -99.90      -99.90      -99.90      -99.90      -99.90      -99.90      -99.90      -99.90    
       -99.90      -99.90      -99.90      -99.90      -99.90      -99.90      -99.90      -99.90      -99.90      -99.90    
       -99.90      -99.90      -99.90      -99.90      -99.90      -99.90      -99.90      -99.90      -99.90      -99.90    
       -99.90      -99.90      -99.90      -99.90      -99.90      -99.90      -99.90      -99.90      -99.90      -99.90    
  25   -99.90      -99.90      -99.90      -99.90      -99.90      -99.90      -99.90      -99.90      -99.90      -99.90    
       -99.90      -99.90      -99.90      -99.90      -99.90      -99.90      -99.90      -99.90      -99.90      -99.90    
       -99.90      -99.90      -99.90      -99.90      -99.90      -99.90      -99.90      -99.90      -99.90      -99.90    
       -99.90      -99.90      -99.90      -99.90      -99.90      -99.90      -99.90      -99.90      -99.90      -99.90    
  26   -99.90      -99.90      -99.90      -99.90      -99.90      -99.90      -99.90      -99.90      -99.90      -99.90    
       -99.90      -99.90      -99.90      -99.90      -99.90      -99.90      -99.90      -99.90      -99.90      -99.90    
       -99.90      -99.90      -99.90      -99.90      -99.90      -99.90      -99.90      -99.90      -99.90      -99.90    
       -99.90      -99.90      -99.90      -99.90      -99.90      -99.90      -99.90      -99.90      -99.90      -99.90    
  27   -99.90      -99.90      -99.90      -99.90      -99.90      -99.90      -99.90      -99.90      -99.90      -99.90    
       -99.90      -99.90      -99.90      -99.90      -99.90      -99.90      -99.90      -99.90      -99.90      -99.90    
       -99.90      -99.90      -99.90      -99.90      -99.90      -99.90      -99.90      -99.90      -99.90      -99.90    
       -99.90      -99.90      -99.90      -99.90      -99.90      -99.90      -99.90      -99.90      -99.90      -99.90    
  28   -99.90      -99.90      -99.90      -99.90      -99.90      -99.90      -99.90      -99.90      -99.90      -99.90    
       -99.90      -99.90      -99.90      -99.90      -99.90      -99.90      -99.90      -99.90      -99.90      -99.90    
       -99.90      -99.90      -99.90      -99.90      -99.90      -99.90      -99.90      -99.90      -99.90      -99.90    
       -99.90      -99.90      -99.90      -99.90      -99.90      -99.90      -99.90      -99.90      -99.90      -99.90    
  29   -99.90      -99.90      -99.90      -99.90      -99.90      -99.90      -99.90      -99.90      -99.90      -99.90    
       -99.90      -99.90      -99.90      -99.90      -99.90      -99.90      -99.90      -99.90      -99.90      -99.90    
       -99.90      -99.90      -99.90      -99.90      -99.90      -99.90      -99.90      -99.90      -99.90      -99.90    
       -99.90      -99.90      -99.90      -99.90      -99.90      -99.90      -99.90      -99.90      -99.90      -99.90    
  30   -99.90      -99.90      -99.90      -99.90      -99.90      -99.90      -99.90      -99.90      -99.90      -99.90    
       -99.90      -99.90      -99.90      -99.90      -99.90      -99.90      -99.90      -99.90      -99.90      -99.90    
       -99.90      -99.90      -99.90      -99.90      -99.90      -99.90      -99.90      -99.90      -99.90      -99.90    
       -99.90      -99.90      -99.90      -99.90      -99.90      -99.90      -99.90      -99.90      -99.90      -99.90    
  31   -99.90      -99.90      -99.90      -99.90      -99.90      -99.90      -99.90      -99.90      -99.90      -99.90    
       -99.90      -99.90      -99.90      -99.90      -99.90      -99.90      -99.90      -99.90      -99.90      -99.90    
       -99.90      -99.90      -99.90      -99.90      -99.90      -99.90      -99.90      -99.90      -99.90      -99.90    
       -99.90      -99.90      -99.90      -99.90      -99.90      -99.90      -99.90      -99.90      -99.90      -99.90    
  32   -99.90      -99.90      -99.90      -99.90      -99.90      -99.90      -99.90      -99.90      -99.90      -99.90    
       -99.90      -99.90      -99.90      -99.90      -99.90      -99.90      -99.90      -99.90      -99.90      -99.90    
       -99.90      -99.90      -99.90      -99.90      -99.90      -99.90      -99.90      -99.90      -99.90      -99.90    
       -99.90      -99.90      -99.90      -99.90      -99.90      -99.90      -99.90      -99.90      -99.90      -99.90    
  33   -99.90      -99.90      -99.90      -99.90      -99.90      -99.90      -99.90      -99.90      -99.90      -99.90    
       -99.90      -99.90      -99.90      -99.90      -99.90      -99.90      -99.90      -99.90      -99.90      -99.90    
       -99.90      -99.90      -99.90      -99.90      -99.90      -99.90      -99.90      -99.90      -99.90      -99.90    
       -99.90      -99.90      -99.90      -99.90      -99.90      -99.90      -99.90      -99.90      -99.90      -99.90    
  34   -99.90      -99.90      -99.90      -99.90      -99.90      -99.90      -99.90      -99.90      -99.90      -99.90    
       -99.90      -99.90      -99.90      -99.90      -99.90      -99.90      -99.90      -99.90      -99.90      -99.90    
       -99.90      -99.90      -99.90      -99.90      -99.90      -99.90      -99.90      -99.90      -99.90      -99.90    
       -99.90      -99.90      -99.90      -99.90      -99.90      -99.90      -99.90      -99.90      -99.90      -99.90    
  35   -99.90      -99.90      -99.90      -99.90      -99.90      -99.90      -99.90      -99.90      -99.90      -99.90    
       -99.90      -99.90      -99.90      -99.90      -99.90      -99.90      -99.90      -99.90      -99.90      -99.90    
       -99.90      -99.90      -99.90      -99.90      -99.90      -99.90      -99.90      -99.90      -99.90      -99.90    
       -99.90      -99.90      -99.90      -99.90      -99.90      -99.90      -99.90      -99.90      -99.90      -99.90    
  36   -99.90      -99.90      -99.90      -99.90      -99.90      -99.90      -99.90      -99.90      -99.90      -99.90    
       -99.90      -99.90      -99.90      -99.90      -99.90      -99.90      -99.90      -99.90      -99.90      -99.90    
       -99.90      -99.90      -99.90      -99.90      -99.90      -99.90      -99.90      -99.90      -99.90      -99.90    
       -99.90      -99.90      -99.90      -99.90      -99.90      -99.90      -99.90      -99.90      -99.90      -99.90    
  37   -99.90      -99.90      -99.90      -99.90      -99.90      -99.90      -99.90      -99.90      -99.90      -99.90    
       -99.90      -99.90      -99.90      -99.90      -99.90      -99.90      -99.90      -99.90      -99.90      -99.90    
       -99.90      -99.90      -99.90      -99.90      -99.90      -99.90      -99.90      -99.90      -99.90      -99.90    
       -99.90      -99.90      -99.90      -99.90      -99.90      -99.90      -99.90      -99.90      -99.90      -99.90    
  38   -99.90      -99.90      -99.90      -99.90      -99.90      -99.90      -99.90      -99.90      -99.90      -99.90    
       -99.90      -99.90      -99.90      -99.90      -99.90      -99.90      -99.90      -99.90      -99.90      -99.90    
       -99.90      -99.90      -99.90      -99.90      -99.90      -99.90      -99.90      -99.90      -99.90      -99.90    
       -99.90      -99.90      -99.90      -99.90      -99.90      -99.90      -99.90      -99.90      -99.90      -99.90    
  39   -99.90      -99.90      -99.90      -99.90      -99.90      -99.90      -99.90      -99.90      -99.90      -99.90    
       -99.90      -99.90      -99.90      -99.90      -99.90      -99.90      -99.90      -99.90      -99.90      -99.90    
       -99.90      -99.90      -99.90      -99.90      -99.90      -99.90      -99.90      -99.90      -99.90      -99.90    
       -99.90      -99.90      -99.90      -99.90      -99.90      -99.90      -99.90      -99.90      -99.90      -99.90    
  40   -99.90      -99.90      -99.90      -99.90      -99.90      -99.90      -99.90      -99.90      -99.90      -99.90    
       -99.90      -99.90      -99.90      -99.90      -99.90      -99.90      -99.90      -99.90      -99.90      -99.90    
       -99.90      -99.90      -99.90      -99.90      -99.90      -99.90      -99.90      -99.90      -99.90      -99.90    
       -99.90      -99.90      -99.90      -99.90      -99.90      -99.90      -99.90      -99.90      -99.90      -99.90    
1
              HEAD IN LAYER 9 AT END OF TIME STEP 1 IN STRESS PERIOD 3
  ---------------------------------------------------------------------------

            1           2           3           4           5           6           7           8           9          10
           11          12          13          14          15          16          17          18          19          20
           21          22          23          24          25          26          27          28          29          30
           31          32          33          34          35          36          37          38          39          40
 ........................................................................................................................
   1    45.37       43.76       40.28       37.29       34.90       32.97       31.39       30.09       29.03       28.17    
        27.48       26.93       26.50       26.15       25.89       25.68       25.52       25.39       25.30       25.23    
        25.17       25.13       25.10       25.07       25.06       25.04       25.03       25.02       25.02       25.01    
        25.01       25.01       25.01       25.00       25.00       25.00      -99.90      -99.90      -99.90      -99.90    
   2    43.76       42.37       39.25       36.59       34.44       32.65       31.16       29.93       28.92       28.09    
        27.42       26.89       26.46       26.13       25.87       25.67       25.51       25.39       25.29       25.22    
        25.17       25.13       25.10       25.07       25.05       25.04       25.03       25.02       25.02       25.01    
        25.01       25.01       25.01       25.00       25.00       25.00      -99.90      -99.90      -99.90      -99.90    
   3    40.28       39.25       37.31       35.37       33.61       32.07       30.75       29.63       28.70       27.93    
        27.31       26.81       26.40       26.09       25.84       25.64       25.49       25.38       25.29       25.22    
        25.16       25.12       25.09       25.07       25.05       25.04       25.03       25.02       25.02       25.01    
        25.01       25.01       25.01       25.00       25.00       25.00      -99.90      -99.90      -99.90      -99.90    
   4    37.29       36.59       35.37       33.98       32.61       31.34       30.21       29.24       28.41       27.72    
        27.15       26.69       26.32       26.02       25.79       25.61       25.47       25.36       25.27       25.21    
        25.16       25.12       25.09       25.07       25.05       25.04       25.03       25.02       25.02       25.01    
        25.01       25.01       25.01       25.00       25.00      -99.90      -99.90      -99.90      -99.90      -99.90    
   5    34.90       34.44       33.61       32.61       31.56       30.54       29.61       28.78       28.07       27.46    
        26.96       26.55       26.22       25.95       25.74       25.57       25.44       25.34       25.26       25.20    
        25.15       25.11       25.09       25.07       25.05       25.04       25.03       25.02       25.02       25.01    
        25.01       25.01       25.00       25.00       25.00      -99.90      -99.90      -99.90      -99.90      -99.90    
   6    32.97       32.65       32.07       31.34       30.54       29.74       28.99       28.31       27.71       27.19    
        26.76       26.40       26.10       25.86       25.67       25.52       25.40       25.31       25.24       25.18    
        25.14       25.11       25.08       25.06       25.05       25.04       25.03       25.02       25.02       25.01    
        25.01       25.01       25.00       25.00       25.00      -99.90      -99.90      -99.90      -99.90      -99.90    
   7    31.39       31.16       30.75       30.21       29.61       28.99       28.39       27.84       27.34       26.91    
        26.54       26.23       25.98       25.77       25.61       25.47       25.37       25.28       25.22       25.17    
        25.13       25.10       25.07       25.06       25.04       25.03       25.02       25.02       25.01       25.01    
        25.01       25.01       25.00       25.00       25.00      -99.90      -99.90      -99.90      -99.90      -99.90    
   8    30.09       29.93       29.63       29.24       28.78       28.31       27.84       27.40       27.00       26.64    
        26.34       26.08       25.86       25.68       25.54       25.42       25.33       25.26       25.20       25.15    
        25.12       25.09       25.07       25.05       25.04       25.03       25.02       25.02       25.01       25.01    
        25.01       25.01       25.00       25.00       25.00      -99.90      -99.90      -99.90      -99.90      -99.90    
   9    29.03       28.92       28.70       28.41       28.07       27.71       27.34       27.00       26.68       26.39    
        26.14       25.92       25.74       25.59       25.47       25.37       25.29       25.23       25.18       25.14    
        25.11       25.08       25.06       25.05       25.04       25.03       25.02       25.02       25.01       25.01    
        25.01       25.01       25.00       25.00       25.00      -99.90      -99.90      -99.90      -99.90      -99.90    
  10    28.17       28.09       27.93       27.72       27.46       27.19       26.91       26.64       26.39       26.16    
        25.96       25.78       25.63       25.51       25.41       25.32       25.25       25.20       25.16       25.12    
        25.09       25.07       25.06       25.04       25.03       25.03       25.02       25.01       25.01       25.01    
        25.01       25.00       25.00       25.00      -99.90      -99.90      -99.90      -99.90      -99.90      -99.90    
  11    27.48       27.42       27.31       27.15       26.96       26.76       26.54       26.34       26.14       25.96    
        25.80       25.66       25.54       25.43       25.35       25.28       25.22       25.17       25.14       25.11    
        25.08       25.06       25.05       25.04       25.03       25.02       25.02       25.01       25.01       25.01    
        25.01       25.00       25.00       25.00      -99.90      -99.90      -99.90      -99.90      -99.90      -99.90    
  12    26.93       26.89       26.81       26.69       26.55       26.40       26.23       26.08       25.92       25.78    
        25.66       25.54       25.45       25.36       25.29       25.24       25.19       25.15       25.12       25.09    
        25.07       25.06       25.04       25.03       25.03       25.02       25.02       25.01       25.01       25.01    
        25.01       25.00       25.00       25.00      -99.90      -99.90      -99.90      -99.90      -99.90      -99.90    
  13    26.50       26.46       26.40       26.32       26.22       26.10       25.98       25.86       25.74       25.63    
        25.54       25.45       25.37       25.30       25.25       25.20       25.16       25.13       25.10       25.08    
        25.06       25.05       25.04       25.03       25.02       25.02       25.01       25.01       25.01       25.01    
        25.00       25.00       25.00       25.00      -99.90      -99.90      -99.90      -99.90      -99.90      -99.90    
  14    26.15       26.13       26.09       26.02       25.95       25.86       25.77       25.68       25.59       25.51    
        25.43       25.36       25.30       25.25       25.20       25.17       25.13       25.11       25.09       25.07    
        25.05       25.04       25.03       25.03       25.02       25.02       25.01       25.01       25.01       25.01    
        25.00       25.00       25.00      -99.90      -99.90      -99.90      -99.90      -99.90      -99.90      -99.90    
  15    25.89       25.87       25.84       25.79       25.74       25.67       25.61       25.54       25.47       25.41    
        25.35       25.29       25.25       25.20       25.17       25.14       25.11       25.09       25.07       25.06    
        25.05       25.04       25.03       25.02       25.02       25.01       25.01       25.01       25.01       25.00    
        25.00       25.00       25.00      -99.90      -99.90      -99.90      -99.90      -99.90      -99.90      -99.90    
  16    25.68       25.67       25.64       25.61       25.57       25.52       25.47       25.42       25.37       25.32    
        25.28       25.24       25.20       25.17       25.14       25.11       25.09       25.07       25.06       25.05    
        25.04       25.03       25.02       25.02       25.02       25.01       25.01       25.01       25.01       25.00    
        25.00       25.00      -99.90      -99.90      -99.90      -99.90      -99.90      -99.90      -99.90      -99.90    
  17    25.52       25.51       25.49       25.47       25.44       25.40       25.37       25.33       25.29       25.25    
        25.22       25.19       25.16       25.13       25.11       25.09       25.08       25.06       25.05       25.04    
        25.03       25.03       25.02       25.02       25.01       25.01       25.01       25.01       25.00       25.00    
        25.00       25.00      -99.90      -99.90      -99.90      -99.90      -99.90      -99.90      -99.90      -99.90    
  18    25.39       25.39       25.38       25.36       25.34       25.31       25.28       25.26       25.23       25.20    
        25.17       25.15       25.13       25.11       25.09       25.07       25.06       25.05       25.04       25.03    
        25.03       25.02       25.02       25.01       25.01       25.01       25.01       25.01       25.00       25.00    
        25.00      -99.90      -99.90      -99.90      -99.90      -99.90      -99.90      -99.90      -99.90      -99.90    
  19    25.30       25.29       25.29       25.27       25.26       25.24       25.22       25.20       25.18       25.16    
        25.14       25.12       25.10       25.09       25.07       25.06       25.05       25.04       25.03       25.03    
        25.02       25.02       25.01       25.01       25.01       25.01       25.01       25.00       25.00       25.00    
        25.00      -99.90      -99.90      -99.90      -99.90      -99.90      -99.90      -99.90      -99.90      -99.90    
  20    25.23       25.22       25.22       25.21       25.20       25.18       25.17       25.15       25.14       25.12    
        25.11       25.09       25.08       25.07       25.06       25.05       25.04       25.03       25.03       25.02    
        25.02       25.01       25.01       25.01       25.01       25.01       25.00       25.00       25.00       25.00    
       -99.90      -99.90      -99.90      -99.90      -99.90      -99.90      -99.90      -99.90      -99.90      -99.90    
  21    25.17       25.17       25.16       25.16       25.15       25.14       25.13       25.12       25.11       25.09    
        25.08       25.07       25.06       25.05       25.05       25.04       25.03       25.03       25.02       25.02    
        25.01       25.01       25.01       25.01       25.01       25.01       25.00       25.00       25.00       25.00    
       -99.90      -99.90      -99.90      -99.90      -99.90      -99.90      -99.90      -99.90      -99.90      -99.90    
  22    25.13       25.13       25.12       25.12       25.11       25.11       25.10       25.09       25.08       25.07    
        25.06       25.06       25.05       25.04       25.04       25.03       25.03       25.02       25.02       25.01    
        25.01       25.01       25.01       25.01       25.01       25.00       25.00       25.00       25.00      -99.90    
       -99.90      -99.90      -99.90      -99.90      -99.90      -99.90      -99.90      -99.90      -99.90      -99.90    
  23    25.10       25.10       25.09       25.09       25.09       25.08       25.07       25.07       25.06       25.06    
        25.05       25.04       25.04       25.03       25.03       25.02       25.02       25.02       25.01       25.01    
        25.01       25.01       25.01       25.01       25.00       25.00       25.00       25.00      -99.90      -99.90    
       -99.90      -99.90      -99.90      -99.90      -99.90      -99.90      -99.90      -99.90      -99.90      -99.90    
  24    25.07       25.07       25.07       25.07       25.07       25.06       25.06       25.05       25.05       25.04    
        25.04       25.03       25.03       25.03       25.02       25.02       25.02       25.01       25.01       25.01    
        25.01       25.01       25.01       25.00       25.00       25.00       25.00      -99.90      -99.90      -99.90    
       -99.90      -99.90      -99.90      -99.90      -99.90      -99.90      -99.90      -99.90      -99.90      -99.90    
  25    25.06       25.05       25.05       25.05       25.05       25.05       25.04       25.04       25.04       25.03    
        25.03       25.03       25.02       25.02       25.02       25.02       25.01       25.01       25.01       25.01    
        25.01       25.01       25.00       25.00       25.00       25.00      -99.90      -99.90      -99.90      -99.90    
       -99.90      -99.90      -99.90      -99.90      -99.90      -99.90      -99.90      -99.90      -99.90      -99.90    
  26    25.04       25.04       25.04       25.04       25.04       25.04       25.03       25.03       25.03       25.03    
        25.02       25.02       25.02       25.02       25.01       25.01       25.01       25.01       25.01       25.01    
        25.01       25.00       25.00       25.00       25.00      -99.90      -99.90      -99.90      -99.90      -99.90    
       -99.90      -99.90      -99.90      -99.90      -99.90      -99.90      -99.90      -99.90      -99.90      -99.90    
  27    25.03       25.03       25.03       25.03       25.03       25.03       25.02       25.02       25.02       25.02    
        25.02       25.02       25.01       25.01       25.01       25.01       25.01       25.01       25.01       25.00    
        25.00       25.00       25.00       25.00      -99.90      -99.90      -99.90      -99.90      -99.90      -99.90    
       -99.90      -99.90      -99.90      -99.90      -99.90      -99.90      -99.90      -99.90      -99.90      -99.90    
  28    25.02       25.02       25.02       25.02       25.02       25.02       25.02       25.02       25.02       25.01    
        25.01       25.01       25.01       25.01       25.01       25.01       25.01       25.01       25.00       25.00    
        25.00       25.00       25.00      -99.90      -99.90      -99.90      -99.90      -99.90      -99.90      -99.90    
       -99.90      -99.90      -99.90      -99.90      -99.90      -99.90      -99.90      -99.90      -99.90      -99.90    
  29    25.02       25.02       25.02       25.02       25.02       25.02       25.01       25.01       25.01       25.01    
        25.01       25.01       25.01       25.01       25.01       25.01       25.00       25.00       25.00       25.00    
        25.00       25.00      -99.90      -99.90      -99.90      -99.90      -99.90      -99.90      -99.90      -99.90    
       -99.90      -99.90      -99.90      -99.90      -99.90      -99.90      -99.90      -99.90      -99.90      -99.90    
  30    25.01       25.01       25.01       25.01       25.01       25.01       25.01       25.01       25.01       25.01    
        25.01       25.01       25.01       25.01       25.00       25.00       25.00       25.00       25.00       25.00    
        25.00      -99.90      -99.90      -99.90      -99.90      -99.90      -99.90      -99.90      -99.90      -99.90    
       -99.90      -99.90      -99.90      -99.90      -99.90      -99.90      -99.90      -99.90      -99.90      -99.90    
  31    25.01       25.01       25.01       25.01       25.01       25.01       25.01       25.01       25.01       25.01    
        25.01       25.01       25.00       25.00       25.00       25.00       25.00       25.00       25.00      -99.90    
       -99.90      -99.90      -99.90      -99.90      -99.90      -99.90      -99.90      -99.90      -99.90      -99.90    
       -99.90      -99.90      -99.90      -99.90      -99.90      -99.90      -99.90      -99.90      -99.90      -99.90    
  32    25.01       25.01       25.01       25.01       25.01       25.01       25.01       25.01       25.01       25.00    
        25.00       25.00       25.00       25.00       25.00       25.00       25.00      -99.90      -99.90      -99.90    
       -99.90      -99.90      -99.90      -99.90      -99.90      -99.90      -99.90      -99.90      -99.90      -99.90    
       -99.90      -99.90      -99.90      -99.90      -99.90      -99.90      -99.90      -99.90      -99.90      -99.90    
  33    25.01       25.01       25.01       25.01       25.00       25.00       25.00       25.00       25.00       25.00    
        25.00       25.00       25.00       25.00       25.00      -99.90      -99.90      -99.90      -99.90      -99.90    
       -99.90      -99.90      -99.90      -99.90      -99.90      -99.90      -99.90      -99.90      -99.90      -99.90    
       -99.90      -99.90      -99.90      -99.90      -99.90      -99.90      -99.90      -99.90      -99.90      -99.90    
  34    25.00       25.00       25.00       25.00       25.00       25.00       25.00       25.00       25.00       25.00    
        25.00       25.00       25.00      -99.90      -99.90      -99.90      -99.90      -99.90      -99.90      -99.90    
       -99.90      -99.90      -99.90      -99.90      -99.90      -99.90      -99.90      -99.90      -99.90      -99.90    
       -99.90      -99.90      -99.90      -99.90      -99.90      -99.90      -99.90      -99.90      -99.90      -99.90    
  35    25.00       25.00       25.00       25.00       25.00       25.00       25.00       25.00       25.00      -99.90    
       -99.90      -99.90      -99.90      -99.90      -99.90      -99.90      -99.90      -99.90      -99.90      -99.90    
       -99.90      -99.90      -99.90      -99.90      -99.90      -99.90      -99.90      -99.90      -99.90      -99.90    
       -99.90      -99.90      -99.90      -99.90      -99.90      -99.90      -99.90      -99.90      -99.90      -99.90    
  36    25.00       25.00       25.00      -99.90      -99.90      -99.90      -99.90      -99.90      -99.90      -99.90    
       -99.90      -99.90      -99.90      -99.90      -99.90      -99.90      -99.90      -99.90      -99.90      -99.90    
       -99.90      -99.90      -99.90      -99.90      -99.90      -99.90      -99.90      -99.90      -99.90      -99.90    
       -99.90      -99.90      -99.90      -99.90      -99.90      -99.90      -99.90      -99.90      -99.90      -99.90    
  37   -99.90      -99.90      -99.90      -99.90      -99.90      -99.90      -99.90      -99.90      -99.90      -99.90    
       -99.90      -99.90      -99.90      -99.90      -99.90      -99.90      -99.90      -99.90      -99.90      -99.90    
       -99.90      -99.90      -99.90      -99.90      -99.90      -99.90      -99.90      -99.90      -99.90      -99.90    
       -99.90      -99.90      -99.90      -99.90      -99.90      -99.90      -99.90      -99.90      -99.90      -99.90    
  38   -99.90      -99.90      -99.90      -99.90      -99.90      -99.90      -99.90      -99.90      -99.90      -99.90    
       -99.90      -99.90      -99.90      -99.90      -99.90      -99.90      -99.90      -99.90      -99.90      -99.90    
       -99.90      -99.90      -99.90      -99.90      -99.90      -99.90      -99.90      -99.90      -99.90      -99.90    
       -99.90      -99.90      -99.90      -99.90      -99.90      -99.90      -99.90      -99.90      -99.90      -99.90    
  39   -99.90      -99.90      -99.90      -99.90      -99.90      -99.90      -99.90      -99.90      -99.90      -99.90    
       -99.90      -99.90      -99.90      -99.90      -99.90      -99.90      -99.90      -99.90      -99.90      -99.90    
       -99.90      -99.90      -99.90      -99.90      -99.90      -99.90      -99.90      -99.90      -99.90      -99.90    
       -99.90      -99.90      -99.90      -99.90      -99.90      -99.90      -99.90      -99.90      -99.90      -99.90    
  40   -99.90      -99.90      -99.90      -99.90      -99.90      -99.90      -99.90      -99.90      -99.90      -99.90    
       -99.90      -99.90      -99.90      -99.90      -99.90      -99.90      -99.90      -99.90      -99.90      -99.90    
       -99.90      -99.90      -99.90      -99.90      -99.90      -99.90      -99.90      -99.90      -99.90      -99.90    
       -99.90      -99.90      -99.90      -99.90      -99.90      -99.90      -99.90      -99.90      -99.90      -99.90    
1
              HEAD IN LAYER 10 AT END OF TIME STEP 1 IN STRESS PERIOD 3
  ---------------------------------------------------------------------------

            1           2           3           4           5           6           7           8           9          10
           11          12          13          14          15          16          17          18          19          20
           21          22          23          24          25          26          27          28          29          30
           31          32          33          34          35          36          37          38          39          40
 ........................................................................................................................
   1    44.89       43.33       40.14       37.25       34.89       32.97       31.40       30.10       29.04       28.19    
        27.49       26.94       26.51       26.16       25.89       25.68       25.52       25.40       25.30       25.23    
        25.17       25.13       25.10       25.07       25.06       25.04       25.03       25.02       25.02       25.01    
        25.01       25.01       25.01       25.00       25.00       25.00       25.00       25.00       25.00       25.00    
   2    43.33       41.97       39.13       36.57       34.43       32.65       31.17       29.94       28.93       28.10    
        27.43       26.90       26.47       26.14       25.88       25.67       25.51       25.39       25.30       25.23    
        25.17       25.13       25.10       25.07       25.06       25.04       25.03       25.02       25.02       25.01    
        25.01       25.01       25.01       25.00       25.00       25.00       25.00       25.00       25.00       25.00    
   3    40.14       39.13       37.27       35.36       33.61       32.08       30.76       29.65       28.71       27.95    
        27.32       26.82       26.41       26.09       25.84       25.65       25.50       25.38       25.29       25.22    
        25.17       25.13       25.09       25.07       25.05       25.04       25.03       25.02       25.02       25.01    
        25.01       25.01       25.01       25.00       25.00       25.00       25.00       25.00       25.00       25.00    
   4    37.25       36.57       35.36       33.98       32.61       31.35       30.23       29.25       28.42       27.73    
        27.16       26.70       26.33       26.03       25.80       25.61       25.47       25.36       25.28       25.21    
        25.16       25.12       25.09       25.07       25.05       25.04       25.03       25.02       25.02       25.01    
        25.01       25.01       25.01       25.00       25.00       25.00       25.00       25.00       25.00       25.00    
   5    34.89       34.43       33.61       32.61       31.57       30.55       29.62       28.80       28.08       27.48    
        26.97       26.56       26.22       25.96       25.74       25.57       25.44       25.34       25.26       25.20    
        25.15       25.11       25.09       25.07       25.05       25.04       25.03       25.02       25.02       25.01    
        25.01       25.01       25.01       25.00       25.00       25.00       25.00       25.00       25.00       25.00    
   6    32.97       32.65       32.08       31.35       30.55       29.76       29.00       28.32       27.72       27.20    
        26.77       26.40       26.11       25.87       25.68       25.53       25.41       25.31       25.24       25.18    
        25.14       25.11       25.08       25.06       25.05       25.04       25.03       25.02       25.02       25.01    
        25.01       25.01       25.00       25.00       25.00       25.00       25.00       25.00       25.00       25.00    
   7    31.40       31.17       30.76       30.23       29.62       29.00       28.41       27.85       27.36       26.92    
        26.55       26.24       25.99       25.78       25.61       25.48       25.37       25.29       25.22       25.17    
        25.13       25.10       25.08       25.06       25.04       25.03       25.03       25.02       25.01       25.01    
        25.01       25.01       25.00       25.00       25.00       25.00       25.00       25.00       25.00       25.00    
   8    30.10       29.94       29.65       29.25       28.80       28.32       27.85       27.41       27.01       26.65    
        26.34       26.08       25.87       25.69       25.54       25.43       25.33       25.26       25.20       25.15    
        25.12       25.09       25.07       25.05       25.04       25.03       25.02       25.02       25.01       25.01    
        25.01       25.01       25.00       25.00       25.00       25.00       25.00       25.00       25.00       25.00    
   9    29.04       28.93       28.71       28.42       28.08       27.72       27.36       27.01       26.69       26.40    
        26.15       25.93       25.75       25.60       25.48       25.37       25.29       25.23       25.18       25.14    
        25.11       25.08       25.06       25.05       25.04       25.03       25.02       25.02       25.01       25.01    
        25.01       25.01       25.00       25.00       25.00       25.00       25.00       25.00       25.00       25.00    
  10    28.19       28.10       27.95       27.73       27.48       27.20       26.92       26.65       26.40       26.17    
        25.97       25.79       25.64       25.51       25.41       25.33       25.26       25.20       25.16       25.12    
        25.10       25.07       25.06       25.04       25.03       25.03       25.02       25.01       25.01       25.01    
        25.01       25.00       25.00       25.00       25.00       25.00       25.00       25.00       25.00       25.00    
  11    27.49       27.43       27.32       27.16       26.97       26.77       26.55       26.34       26.15       25.97    
        25.80       25.66       25.54       25.44       25.35       25.28       25.22       25.18       25.14       25.11    
        25.08       25.07       25.05       25.04       25.03       25.02       25.02       25.01       25.01       25.01    
        25.01       25.00       25.00       25.00       25.00       25.00       25.00       25.00       25.00       25.00    
  12    26.94       26.90       26.82       26.70       26.56       26.40       26.24       26.08       25.93       25.79    
        25.66       25.55       25.45       25.37       25.30       25.24       25.19       25.15       25.12       25.09    
        25.07       25.06       25.04       25.03       25.03       25.02       25.02       25.01       25.01       25.01    
        25.01       25.00       25.00       25.00       25.00       25.00       25.00       25.00       25.00       25.00    
  13    26.51       26.47       26.41       26.33       26.22       26.11       25.99       25.87       25.75       25.64    
        25.54       25.45       25.37       25.31       25.25       25.20       25.16       25.13       25.10       25.08    
        25.06       25.05       25.04       25.03       25.02       25.02       25.01       25.01       25.01       25.01    
        25.00       25.00       25.00       25.00       25.00       25.00       25.00       25.00       25.00       25.00    
  14    26.16       26.14       26.09       26.03       25.96       25.87       25.78       25.69       25.60       25.51    
        25.44       25.37       25.31       25.25       25.21       25.17       25.14       25.11       25.09       25.07    
        25.05       25.04       25.03       25.03       25.02       25.02       25.01       25.01       25.01       25.01    
        25.00       25.00       25.00       25.00       25.00       25.00       25.00       25.00       25.00       25.00    
  15    25.89       25.88       25.84       25.80       25.74       25.68       25.61       25.54       25.48       25.41    
        25.35       25.30       25.25       25.21       25.17       25.14       25.11       25.09       25.07       25.06    
        25.05       25.04       25.03       25.02       25.02       25.01       25.01       25.01       25.01       25.00    
        25.00       25.00       25.00       25.00       25.00       25.00       25.00       25.00       25.00       25.00    
  16    25.68       25.67       25.65       25.61       25.57       25.53       25.48       25.43       25.37       25.33    
        25.28       25.24       25.20       25.17       25.14       25.11       25.09       25.08       25.06       25.05    
        25.04       25.03       25.02       25.02       25.02       25.01       25.01       25.01       25.01       25.00    
        25.00       25.00       25.00       25.00       25.00       25.00       25.00       25.00       25.00       25.00    
  17    25.52       25.51       25.50       25.47       25.44       25.41       25.37       25.33       25.29       25.26    
        25.22       25.19       25.16       25.14       25.11       25.09       25.08       25.06       25.05       25.04    
        25.03       25.03       25.02       25.02       25.01       25.01       25.01       25.01       25.00       25.00    
        25.00       25.00       25.00       25.00       25.00       25.00       25.00       25.00       25.00       25.00    
  18    25.40       25.39       25.38       25.36       25.34       25.31       25.29       25.26       25.23       25.20    
        25.18       25.15       25.13       25.11       25.09       25.08       25.06       25.05       25.04       25.03    
        25.03       25.02       25.02       25.01       25.01       25.01       25.01       25.01       25.00       25.00    
        25.00       25.00       25.00       25.00       25.00       25.00       25.00       25.00       25.00       25.00    
  19    25.30       25.30       25.29       25.28       25.26       25.24       25.22       25.20       25.18       25.16    
        25.14       25.12       25.10       25.09       25.07       25.06       25.05       25.04       25.03       25.03    
        25.02       25.02       25.01       25.01       25.01       25.01       25.01       25.00       25.00       25.00    
        25.00       25.00       25.00       25.00       25.00       25.00       25.00       25.00       25.00       25.00    
  20    25.23       25.23       25.22       25.21       25.20       25.18       25.17       25.15       25.14       25.12    
        25.11       25.09       25.08       25.07       25.06       25.05       25.04       25.03       25.03       25.02    
        25.02       25.02       25.01       25.01       25.01       25.01       25.00       25.00       25.00       25.00    
        25.00       25.00       25.00       25.00       25.00       25.00       25.00       25.00       25.00       25.00    
  21    25.17       25.17       25.17       25.16       25.15       25.14       25.13       25.12       25.11       25.10    
        25.08       25.07       25.06       25.05       25.05       25.04       25.03       25.03       25.02       25.02    
        25.02       25.01       25.01       25.01       25.01       25.01       25.00       25.00       25.00       25.00    
        25.00       25.00       25.00       25.00       25.00       25.00       25.00       25.00       25.00       25.00    
  22    25.13       25.13       25.13       25.12       25.11       25.11       25.10       25.09       25.08       25.07    
        25.07       25.06       25.05       25.04       25.04       25.03       25.03       25.02       25.02       25.02    
        25.01       25.01       25.01       25.01       25.01       25.00       25.00       25.00       25.00       25.00    
        25.00       25.00       25.00       25.00       25.00       25.00       25.00       25.00       25.00       25.00    
  23    25.10       25.10       25.09       25.09       25.09       25.08       25.08       25.07       25.06       25.06    
        25.05       25.04       25.04       25.03       25.03       25.02       25.02       25.02       25.01       25.01    
        25.01       25.01       25.01       25.01       25.00       25.00       25.00       25.00       25.00       25.00    
        25.00       25.00       25.00       25.00       25.00       25.00       25.00       25.00       25.00       25.00    
  24    25.07       25.07       25.07       25.07       25.07       25.06       25.06       25.05       25.05       25.04    
        25.04       25.03       25.03       25.03       25.02       25.02       25.02       25.01       25.01       25.01    
        25.01       25.01       25.01       25.00       25.00       25.00       25.00       25.00       25.00       25.00    
        25.00       25.00       25.00       25.00       25.00       25.00       25.00       25.00       25.00       25.00    
  25    25.06       25.06       25.05       25.05       25.05       25.05       25.04       25.04       25.04       25.03    
        25.03       25.03       25.02       25.02       25.02       25.02       25.01       25.01       25.01       25.01    
        25.01       25.01       25.00       25.00       25.00       25.00       25.00       25.00       25.00       25.00    
        25.00       25.00       25.00       25.00       25.00       25.00       25.00       25.00       25.00       25.00    
  26    25.04       25.04       25.04       25.04       25.04       25.04       25.03       25.03       25.03       25.03    
        25.02       25.02       25.02       25.02       25.01       25.01       25.01       25.01       25.01       25.01    
        25.01       25.00       25.00       25.00       25.00       25.00       25.00       25.00       25.00       25.00    
        25.00       25.00       25.00       25.00       25.00       25.00       25.00       25.00       25.00       25.00    
  27    25.03       25.03       25.03       25.03       25.03       25.03       25.03       25.02       25.02       25.02    
        25.02       25.02       25.01       25.01       25.01       25.01       25.01       25.01       25.01       25.00    
        25.00       25.00       25.00       25.00       25.00       25.00       25.00       25.00       25.00       25.00    
        25.00       25.00       25.00       25.00       25.00       25.00       25.00       25.00       25.00       25.00    
  28    25.02       25.02       25.02       25.02       25.02       25.02       25.02       25.02       25.02       25.01    
        25.01       25.01       25.01       25.01       25.01       25.01       25.01       25.01       25.00       25.00    
        25.00       25.00       25.00       25.00       25.00       25.00       25.00       25.00       25.00       25.00    
        25.00       25.00       25.00       25.00       25.00       25.00       25.00       25.00       25.00       25.00    
  29    25.02       25.02       25.02       25.02       25.02       25.02       25.01       25.01       25.01       25.01    
        25.01       25.01       25.01       25.01       25.01       25.01       25.00       25.00       25.00       25.00    
        25.00       25.00       25.00       25.00       25.00       25.00       25.00       25.00       25.00       25.00    
        25.00       25.00       25.00       25.00       25.00       25.00       25.00       25.00       25.00       25.00    
  30    25.01       25.01       25.01       25.01       25.01       25.01       25.01       25.01       25.01       25.01    
        25.01       25.01       25.01       25.01       25.00       25.00       25.00       25.00       25.00       25.00    
        25.00       25.00       25.00       25.00       25.00       25.00       25.00       25.00       25.00       25.00    
        25.00       25.00       25.00       25.00       25.00       25.00       25.00       25.00       25.00       25.00    
  31    25.01       25.01       25.01       25.01       25.01       25.01       25.01       25.01       25.01       25.01    
        25.01       25.01       25.00       25.00       25.00       25.00       25.00       25.00       25.00       25.00    
        25.00       25.00       25.00       25.00       25.00       25.00       25.00       25.00       25.00       25.00    
        25.00       25.00       25.00       25.00       25.00       25.00       25.00       25.00       25.00       25.00    
  32    25.01       25.01       25.01       25.01       25.01       25.01       25.01       25.01       25.01       25.00    
        25.00       25.00       25.00       25.00       25.00       25.00       25.00       25.00       25.00       25.00    
        25.00       25.00       25.00       25.00       25.00       25.00       25.00       25.00       25.00       25.00    
        25.00       25.00       25.00       25.00       25.00       25.00       25.00       25.00       25.00       25.00    
  33    25.01       25.01       25.01       25.01       25.01       25.00       25.00       25.00       25.00       25.00    
        25.00       25.00       25.00       25.00       25.00       25.00       25.00       25.00       25.00       25.00    
        25.00       25.00       25.00       25.00       25.00       25.00       25.00       25.00       25.00       25.00    
        25.00       25.00       25.00       25.00       25.00       25.00       25.00       25.00       25.00       25.00    
  34    25.00       25.00       25.00       25.00       25.00       25.00       25.00       25.00       25.00       25.00    
        25.00       25.00       25.00       25.00       25.00       25.00       25.00       25.00       25.00       25.00    
        25.00       25.00       25.00       25.00       25.00       25.00       25.00       25.00       25.00       25.00    
        25.00       25.00       25.00       25.00       25.00       25.00       25.00       25.00       25.00       25.00    
  35    25.00       25.00       25.00       25.00       25.00       25.00       25.00       25.00       25.00       25.00    
        25.00       25.00       25.00       25.00       25.00       25.00       25.00       25.00       25.00       25.00    
        25.00       25.00       25.00       25.00       25.00       25.00       25.00       25.00       25.00       25.00    
        25.00       25.00       25.00       25.00       25.00       25.00       25.00       25.00       25.00       25.00    
  36    25.00       25.00       25.00       25.00       25.00       25.00       25.00       25.00       25.00       25.00    
        25.00       25.00       25.00       25.00       25.00       25.00       25.00       25.00       25.00       25.00    
        25.00       25.00       25.00       25.00       25.00       25.00       25.00       25.00       25.00       25.00    
        25.00       25.00       25.00       25.00       25.00       25.00       25.00       25.00       25.00       25.00    
  37    25.00       25.00       25.00       25.00       25.00       25.00       25.00       25.00       25.00       25.00    
        25.00       25.00       25.00       25.00       25.00       25.00       25.00       25.00       25.00       25.00    
        25.00       25.00       25.00       25.00       25.00       25.00       25.00       25.00       25.00       25.00    
        25.00       25.00       25.00       25.00       25.00       25.00       25.00       25.00       25.00       25.00    
  38    25.00       25.00       25.00       25.00       25.00       25.00       25.00       25.00       25.00       25.00    
        25.00       25.00       25.00       25.00       25.00       25.00       25.00       25.00       25.00       25.00    
        25.00       25.00       25.00       25.00       25.00       25.00       25.00       25.00       25.00       25.00    
        25.00       25.00       25.00       25.00       25.00       25.00       25.00       25.00       25.00       25.00    
  39    25.00       25.00       25.00       25.00       25.00       25.00       25.00       25.00       25.00       25.00    
        25.00       25.00       25.00       25.00       25.00       25.00       25.00       25.00       25.00       25.00    
        25.00       25.00       25.00       25.00       25.00       25.00       25.00       25.00       25.00       25.00    
        25.00       25.00       25.00       25.00       25.00       25.00       25.00       25.00       25.00       25.00    
  40    25.00       25.00       25.00       25.00       25.00       25.00       25.00       25.00       25.00       25.00    
        25.00       25.00       25.00       25.00       25.00       25.00       25.00       25.00       25.00       25.00    
        25.00       25.00       25.00       25.00       25.00       25.00       25.00       25.00       25.00       25.00    
        25.00       25.00       25.00       25.00       25.00       25.00       25.00       25.00       25.00       25.00    
1
              HEAD IN LAYER 11 AT END OF TIME STEP 1 IN STRESS PERIOD 3
  ---------------------------------------------------------------------------

            1           2           3           4           5           6           7           8           9          10
           11          12          13          14          15          16          17          18          19          20
           21          22          23          24          25          26          27          28          29          30
           31          32          33          34          35          36          37          38          39          40
 ........................................................................................................................
   1    44.51       43.00       40.02       37.22       34.89       32.97       31.40       30.11       29.05       28.20    
        27.50       26.95       26.51       26.17       25.90       25.69       25.53       25.40       25.30       25.23    
        25.17       25.13       25.10       25.08       25.06       25.04       25.03       25.02       25.02       25.01    
        25.01       25.01       25.01       25.00       25.00       25.00       25.00       25.00       25.00       25.00    
   2    43.00       41.67       39.04       36.54       34.43       32.66       31.18       29.95       28.94       28.11    
        27.44       26.91       26.48       26.14       25.88       25.68       25.52       25.39       25.30       25.23    
        25.17       25.13       25.10       25.07       25.06       25.04       25.03       25.02       25.02       25.01    
        25.01       25.01       25.01       25.00       25.00       25.00       25.00       25.00       25.00       25.00    
   3    40.02       39.04       37.24       35.35       33.62       32.09       30.77       29.66       28.73       27.96    
        27.33       26.82       26.42       26.10       25.85       25.65       25.50       25.38       25.29       25.22    
        25.17       25.13       25.10       25.07       25.05       25.04       25.03       25.02       25.02       25.01    
        25.01       25.01       25.01       25.00       25.00       25.00       25.00       25.00       25.00       25.00    
   4    37.22       36.54       35.35       33.98       32.62       31.36       30.24       29.26       28.43       27.74    
        27.17       26.71       26.34       26.04       25.80       25.62       25.48       25.36       25.28       25.21    
        25.16       25.12       25.09       25.07       25.05       25.04       25.03       25.02       25.02       25.01    
        25.01       25.01       25.01       25.00       25.00       25.00       25.00       25.00       25.00       25.00    
   5    34.89       34.43       33.62       32.62       31.58       30.56       29.63       28.81       28.09       27.49    
        26.98       26.57       26.23       25.96       25.75       25.58       25.44       25.34       25.26       25.20    
        25.15       25.12       25.09       25.07       25.05       25.04       25.03       25.02       25.02       25.01    
        25.01       25.01       25.01       25.00       25.00       25.00       25.00       25.00       25.00       25.00    
   6    32.97       32.66       32.09       31.36       30.56       29.77       29.01       28.33       27.73       27.21    
        26.77       26.41       26.12       25.88       25.68       25.53       25.41       25.32       25.24       25.19    
        25.14       25.11       25.08       25.06       25.05       25.04       25.03       25.02       25.02       25.01    
        25.01       25.01       25.00       25.00       25.00       25.00       25.00       25.00       25.00       25.00    
   7    31.40       31.18       30.77       30.24       29.63       29.01       28.42       27.86       27.36       26.93    
        26.56       26.25       25.99       25.78       25.62       25.48       25.37       25.29       25.22       25.17    
        25.13       25.10       25.08       25.06       25.04       25.03       25.03       25.02       25.01       25.01    
        25.01       25.01       25.00       25.00       25.00       25.00       25.00       25.00       25.00       25.00    
   8    30.11       29.95       29.66       29.26       28.81       28.33       27.86       27.42       27.02       26.66    
        26.35       26.09       25.87       25.69       25.55       25.43       25.33       25.26       25.20       25.16    
        25.12       25.09       25.07       25.05       25.04       25.03       25.02       25.02       25.01       25.01    
        25.01       25.01       25.00       25.00       25.00       25.00       25.00       25.00       25.00       25.00    
   9    29.05       28.94       28.73       28.43       28.09       27.73       27.36       27.02       26.69       26.41    
        26.15       25.94       25.75       25.60       25.48       25.38       25.30       25.23       25.18       25.14    
        25.11       25.08       25.06       25.05       25.04       25.03       25.02       25.02       25.01       25.01    
        25.01       25.01       25.00       25.00       25.00       25.00       25.00       25.00       25.00       25.00    
  10    28.20       28.11       27.96       27.74       27.49       27.21       26.93       26.66       26.41       26.18    
        25.97       25.79       25.64       25.52       25.41       25.33       25.26       25.20       25.16       25.12    
        25.10       25.07       25.06       25.04       25.03       25.03       25.02       25.02       25.01       25.01    
        25.01       25.00       25.00       25.00       25.00       25.00       25.00       25.00       25.00       25.00    
  11    27.50       27.44       27.33       27.17       26.98       26.77       26.56       26.35       26.15       25.97    
        25.81       25.67       25.54       25.44       25.35       25.28       25.22       25.18       25.14       25.11    
        25.08       25.07       25.05       25.04       25.03       25.02       25.02       25.01       25.01       25.01    
        25.01       25.00       25.00       25.00       25.00       25.00       25.00       25.00       25.00       25.00    
  12    26.95       26.91       26.82       26.71       26.57       26.41       26.25       26.09       25.94       25.79    
        25.67       25.55       25.45       25.37       25.30       25.24       25.19       25.15       25.12       25.09    
        25.07       25.06       25.04       25.03       25.03       25.02       25.02       25.01       25.01       25.01    
        25.01       25.00       25.00       25.00       25.00       25.00       25.00       25.00       25.00       25.00    
  13    26.51       26.48       26.42       26.34       26.23       26.12       25.99       25.87       25.75       25.64    
        25.54       25.45       25.38       25.31       25.25       25.20       25.16       25.13       25.10       25.08    
        25.06       25.05       25.04       25.03       25.02       25.02       25.01       25.01       25.01       25.01    
        25.00       25.00       25.00       25.00       25.00       25.00       25.00       25.00       25.00       25.00    
  14    26.17       26.14       26.10       26.04       25.96       25.88       25.78       25.69       25.60       25.52    
        25.44       25.37       25.31       25.25       25.21       25.17       25.14       25.11       25.09       25.07    
        25.05       25.04       25.03       25.03       25.02       25.02       25.01       25.01       25.01       25.01    
        25.00       25.00       25.00       25.00       25.00       25.00       25.00       25.00       25.00       25.00    
  15    25.90       25.88       25.85       25.80       25.75       25.68       25.62       25.55       25.48       25.41    
        25.35       25.30       25.25       25.21       25.17       25.14       25.11       25.09       25.07       25.06    
        25.05       25.04       25.03       25.02       25.02       25.01       25.01       25.01       25.01       25.00    
        25.00       25.00       25.00       25.00       25.00       25.00       25.00       25.00       25.00       25.00    
  16    25.69       25.68       25.65       25.62       25.58       25.53       25.48       25.43       25.38       25.33    
        25.28       25.24       25.20       25.17       25.14       25.12       25.09       25.08       25.06       25.05    
        25.04       25.03       25.02       25.02       25.02       25.01       25.01       25.01       25.01       25.00    
        25.00       25.00       25.00       25.00       25.00       25.00       25.00       25.00       25.00       25.00    
  17    25.53       25.52       25.50       25.48       25.44       25.41       25.37       25.33       25.30       25.26    
        25.22       25.19       25.16       25.14       25.11       25.09       25.08       25.06       25.05       25.04    
        25.03       25.03       25.02       25.02       25.01       25.01       25.01       25.01       25.00       25.00    
        25.00       25.00       25.00       25.00       25.00       25.00       25.00       25.00       25.00       25.00    
  18    25.40       25.39       25.38       25.36       25.34       25.32       25.29       25.26       25.23       25.20    
        25.18       25.15       25.13       25.11       25.09       25.08       25.06       25.05       25.04       25.03    
        25.03       25.02       25.02       25.01       25.01       25.01       25.01       25.01       25.00       25.00    
        25.00       25.00       25.00       25.00       25.00       25.00       25.00       25.00       25.00       25.00    
  19    25.30       25.30       25.29       25.28       25.26       25.24       25.22       25.20       25.18       25.16    
        25.14       25.12       25.10       25.09       25.07       25.06       25.05       25.04       25.03       25.03    
        25.02       25.02       25.01       25.01       25.01       25.01       25.01       25.00       25.00       25.00    
        25.00       25.00       25.00       25.00       25.00       25.00       25.00       25.00       25.00       25.00    
  20    25.23       25.23       25.22       25.21       25.20       25.19       25.17       25.16       25.14       25.12    
        25.11       25.09       25.08       25.07       25.06       25.05       25.04       25.03       25.03       25.02    
        25.02       25.02       25.01       25.01       25.01       25.01       25.00       25.00       25.00       25.00    
        25.00       25.00       25.00       25.00       25.00       25.00       25.00       25.00       25.00       25.00    
  21    25.17       25.17       25.17       25.16       25.15       25.14       25.13       25.12       25.11       25.10    
        25.08       25.07       25.06       25.05       25.05       25.04       25.03       25.03       25.02       25.02    
        25.02       25.01       25.01       25.01       25.01       25.01       25.00       25.00       25.00       25.00    
        25.00       25.00       25.00       25.00       25.00       25.00       25.00       25.00       25.00       25.00    
  22    25.13       25.13       25.13       25.12       25.12       25.11       25.10       25.09       25.08       25.07    
        25.07       25.06       25.05       25.04       25.04       25.03       25.03       25.02       25.02       25.02    
        25.01       25.01       25.01       25.01       25.01       25.00       25.00       25.00       25.00       25.00    
        25.00       25.00       25.00       25.00       25.00       25.00       25.00       25.00       25.00       25.00    
  23    25.10       25.10       25.10       25.09       25.09       25.08       25.08       25.07       25.06       25.06    
        25.05       25.04       25.04       25.03       25.03       25.02       25.02       25.02       25.01       25.01    
        25.01       25.01       25.01       25.01       25.00       25.00       25.00       25.00       25.00       25.00    
        25.00       25.00       25.00       25.00       25.00       25.00       25.00       25.00       25.00       25.00    
  24    25.08       25.07       25.07       25.07       25.07       25.06       25.06       25.05       25.05       25.04    
        25.04       25.03       25.03       25.03       25.02       25.02       25.02       25.01       25.01       25.01    
        25.01       25.01       25.01       25.00       25.00       25.00       25.00       25.00       25.00       25.00    
        25.00       25.00       25.00       25.00       25.00       25.00       25.00       25.00       25.00       25.00    
  25    25.06       25.06       25.05       25.05       25.05       25.05       25.04       25.04       25.04       25.03    
        25.03       25.03       25.02       25.02       25.02       25.02       25.01       25.01       25.01       25.01    
        25.01       25.01       25.00       25.00       25.00       25.00       25.00       25.00       25.00       25.00    
        25.00       25.00       25.00       25.00       25.00       25.00       25.00       25.00       25.00       25.00    
  26    25.04       25.04       25.04       25.04       25.04       25.04       25.03       25.03       25.03       25.03    
        25.02       25.02       25.02       25.02       25.01       25.01       25.01       25.01       25.01       25.01    
        25.01       25.00       25.00       25.00       25.00       25.00       25.00       25.00       25.00       25.00    
        25.00       25.00       25.00       25.00       25.00       25.00       25.00       25.00       25.00       25.00    
  27    25.03       25.03       25.03       25.03       25.03       25.03       25.03       25.02       25.02       25.02    
        25.02       25.02       25.01       25.01       25.01       25.01       25.01       25.01       25.01       25.00    
        25.00       25.00       25.00       25.00       25.00       25.00       25.00       25.00       25.00       25.00    
        25.00       25.00       25.00       25.00       25.00       25.00       25.00       25.00       25.00       25.00    
  28    25.02       25.02       25.02       25.02       25.02       25.02       25.02       25.02       25.02       25.02    
        25.01       25.01       25.01       25.01       25.01       25.01       25.01       25.01       25.00       25.00    
        25.00       25.00       25.00       25.00       25.00       25.00       25.00       25.00       25.00       25.00    
        25.00       25.00       25.00       25.00       25.00       25.00       25.00       25.00       25.00       25.00    
  29    25.02       25.02       25.02       25.02       25.02       25.02       25.01       25.01       25.01       25.01    
        25.01       25.01       25.01       25.01       25.01       25.01       25.00       25.00       25.00       25.00    
        25.00       25.00       25.00       25.00       25.00       25.00       25.00       25.00       25.00       25.00    
        25.00       25.00       25.00       25.00       25.00       25.00       25.00       25.00       25.00       25.00    
  30    25.01       25.01       25.01       25.01       25.01       25.01       25.01       25.01       25.01       25.01    
        25.01       25.01       25.01       25.01       25.00       25.00       25.00       25.00       25.00       25.00    
        25.00       25.00       25.00       25.00       25.00       25.00       25.00       25.00       25.00       25.00    
        25.00       25.00       25.00       25.00       25.00       25.00       25.00       25.00       25.00       25.00    
  31    25.01       25.01       25.01       25.01       25.01       25.01       25.01       25.01       25.01       25.01    
        25.01       25.01       25.00       25.00       25.00       25.00       25.00       25.00       25.00       25.00    
        25.00       25.00       25.00       25.00       25.00       25.00       25.00       25.00       25.00       25.00    
        25.00       25.00       25.00       25.00       25.00       25.00       25.00       25.00       25.00       25.00    
  32    25.01       25.01       25.01       25.01       25.01       25.01       25.01       25.01       25.01       25.00    
        25.00       25.00       25.00       25.00       25.00       25.00       25.00       25.00       25.00       25.00    
        25.00       25.00       25.00       25.00       25.00       25.00       25.00       25.00       25.00       25.00    
        25.00       25.00       25.00       25.00       25.00       25.00       25.00       25.00       25.00       25.00    
  33    25.01       25.01       25.01       25.01       25.01       25.00       25.00       25.00       25.00       25.00    
        25.00       25.00       25.00       25.00       25.00       25.00       25.00       25.00       25.00       25.00    
        25.00       25.00       25.00       25.00       25.00       25.00       25.00       25.00       25.00       25.00    
        25.00       25.00       25.00       25.00       25.00       25.00       25.00       25.00       25.00       25.00    
  34    25.00       25.00       25.00       25.00       25.00       25.00       25.00       25.00       25.00       25.00    
        25.00       25.00       25.00       25.00       25.00       25.00       25.00       25.00       25.00       25.00    
        25.00       25.00       25.00       25.00       25.00       25.00       25.00       25.00       25.00       25.00    
        25.00       25.00       25.00       25.00       25.00       25.00       25.00       25.00       25.00       25.00    
  35    25.00       25.00       25.00       25.00       25.00       25.00       25.00       25.00       25.00       25.00    
        25.00       25.00       25.00       25.00       25.00       25.00       25.00       25.00       25.00       25.00    
        25.00       25.00       25.00       25.00       25.00       25.00       25.00       25.00       25.00       25.00    
        25.00       25.00       25.00       25.00       25.00       25.00       25.00       25.00       25.00       25.00    
  36    25.00       25.00       25.00       25.00       25.00       25.00       25.00       25.00       25.00       25.00    
        25.00       25.00       25.00       25.00       25.00       25.00       25.00       25.00       25.00       25.00    
        25.00       25.00       25.00       25.00       25.00       25.00       25.00       25.00       25.00       25.00    
        25.00       25.00       25.00       25.00       25.00       25.00       25.00       25.00       25.00       25.00    
  37    25.00       25.00       25.00       25.00       25.00       25.00       25.00       25.00       25.00       25.00    
        25.00       25.00       25.00       25.00       25.00       25.00       25.00       25.00       25.00       25.00    
        25.00       25.00       25.00       25.00       25.00       25.00       25.00       25.00       25.00       25.00    
        25.00       25.00       25.00       25.00       25.00       25.00       25.00       25.00       25.00       25.00    
  38    25.00       25.00       25.00       25.00       25.00       25.00       25.00       25.00       25.00       25.00    
        25.00       25.00       25.00       25.00       25.00       25.00       25.00       25.00       25.00       25.00    
        25.00       25.00       25.00       25.00       25.00       25.00       25.00       25.00       25.00       25.00    
        25.00       25.00       25.00       25.00       25.00       25.00       25.00       25.00       25.00       25.00    
  39    25.00       25.00       25.00       25.00       25.00       25.00       25.00       25.00       25.00       25.00    
        25.00       25.00       25.00       25.00       25.00       25.00       25.00       25.00       25.00       25.00    
        25.00       25.00       25.00       25.00       25.00       25.00       25.00       25.00       25.00       25.00    
        25.00       25.00       25.00       25.00       25.00       25.00       25.00       25.00       25.00       25.00    
  40    25.00       25.00       25.00       25.00       25.00       25.00       25.00       25.00       25.00       25.00    
        25.00       25.00       25.00       25.00       25.00       25.00       25.00       25.00       25.00       25.00    
        25.00       25.00       25.00       25.00       25.00       25.00       25.00       25.00       25.00       25.00    
        25.00       25.00       25.00       25.00       25.00       25.00       25.00       25.00       25.00       25.00    
1
              HEAD IN LAYER 12 AT END OF TIME STEP 1 IN STRESS PERIOD 3
  ---------------------------------------------------------------------------

            1           2           3           4           5           6           7           8           9          10
           11          12          13          14          15          16          17          18          19          20
           21          22          23          24          25          26          27          28          29          30
           31          32          33          34          35          36          37          38          39          40
 ........................................................................................................................
   1    44.23       42.75       39.93       37.19       34.88       32.98       31.41       30.12       29.06       28.20    
        27.51       26.96       26.52       26.17       25.90       25.69       25.53       25.40       25.31       25.23    
        25.18       25.13       25.10       25.08       25.06       25.04       25.03       25.02       25.02       25.01    
        25.01       25.01       25.01       25.00       25.00       25.00       25.00       25.00       25.00       25.00    
   2    42.75       41.45       38.96       36.53       34.43       32.66       31.19       29.96       28.95       28.12    
        27.45       26.91       26.49       26.15       25.88       25.68       25.52       25.40       25.30       25.23    
        25.17       25.13       25.10       25.07       25.06       25.04       25.03       25.02       25.02       25.01    
        25.01       25.01       25.01       25.00       25.00       25.00       25.00       25.00       25.00       25.00    
   3    39.93       38.96       37.21       35.35       33.62       32.09       30.78       29.66       28.73       27.96    
        27.34       26.83       26.43       26.10       25.85       25.66       25.50       25.38       25.29       25.22    
        25.17       25.13       25.10       25.07       25.05       25.04       25.03       25.02       25.02       25.01    
        25.01       25.01       25.01       25.00       25.00       25.00       25.00       25.00       25.00       25.00    
   4    37.19       36.53       35.35       33.98       32.62       31.37       30.24       29.27       28.44       27.75    
        27.18       26.71       26.34       26.04       25.81       25.62       25.48       25.37       25.28       25.21    
        25.16       25.12       25.09       25.07       25.05       25.04       25.03       25.02       25.02       25.01    
        25.01       25.01       25.01       25.00       25.00       25.00       25.00       25.00       25.00       25.00    
   5    34.88       34.43       33.62       32.62       31.58       30.57       29.64       28.82       28.10       27.49    
        26.99       26.57       26.24       25.97       25.75       25.58       25.45       25.34       25.26       25.20    
        25.15       25.12       25.09       25.07       25.05       25.04       25.03       25.02       25.02       25.01    
        25.01       25.01       25.01       25.00       25.00       25.00       25.00       25.00       25.00       25.00    
   6    32.98       32.66       32.09       31.37       30.57       29.78       29.02       28.34       27.74       27.22    
        26.78       26.42       26.12       25.88       25.69       25.53       25.41       25.32       25.24       25.19    
        25.14       25.11       25.08       25.06       25.05       25.04       25.03       25.02       25.02       25.01    
        25.01       25.01       25.00       25.00       25.00       25.00       25.00       25.00       25.00       25.00    
   7    31.41       31.19       30.78       30.24       29.64       29.02       28.42       27.87       27.37       26.94    
        26.57       26.26       26.00       25.79       25.62       25.48       25.38       25.29       25.22       25.17    
        25.13       25.10       25.08       25.06       25.04       25.03       25.03       25.02       25.01       25.01    
        25.01       25.01       25.00       25.00       25.00       25.00       25.00       25.00       25.00       25.00    
   8    30.12       29.96       29.66       29.27       28.82       28.34       27.87       27.43       27.02       26.67    
        26.36       26.09       25.88       25.70       25.55       25.43       25.34       25.26       25.20       25.16    
        25.12       25.09       25.07       25.05       25.04       25.03       25.02       25.02       25.01       25.01    
        25.01       25.01       25.00       25.00       25.00       25.00       25.00       25.00       25.00       25.00    
   9    29.06       28.95       28.73       28.44       28.10       27.74       27.37       27.02       26.70       26.41    
        26.16       25.94       25.76       25.61       25.48       25.38       25.30       25.23       25.18       25.14    
        25.11       25.08       25.06       25.05       25.04       25.03       25.02       25.02       25.01       25.01    
        25.01       25.01       25.00       25.00       25.00       25.00       25.00       25.00       25.00       25.00    
  10    28.20       28.12       27.96       27.75       27.49       27.22       26.94       26.67       26.41       26.18    
        25.98       25.80       25.65       25.52       25.42       25.33       25.26       25.20       25.16       25.12    
        25.10       25.07       25.06       25.04       25.03       25.03       25.02       25.02       25.01       25.01    
        25.01       25.00       25.00       25.00       25.00       25.00       25.00       25.00       25.00       25.00    
  11    27.51       27.45       27.34       27.18       26.99       26.78       26.57       26.36       26.16       25.98    
        25.81       25.67       25.55       25.44       25.36       25.28       25.23       25.18       25.14       25.11    
        25.09       25.07       25.05       25.04       25.03       25.02       25.02       25.01       25.01       25.01    
        25.01       25.00       25.00       25.00       25.00       25.00       25.00       25.00       25.00       25.00    
  12    26.96       26.91       26.83       26.71       26.57       26.42       26.26       26.09       25.94       25.80    
        25.67       25.56       25.46       25.37       25.30       25.24       25.19       25.15       25.12       25.10    
        25.07       25.06       25.05       25.03       25.03       25.02       25.02       25.01       25.01       25.01    
        25.01       25.00       25.00       25.00       25.00       25.00       25.00       25.00       25.00       25.00    
  13    26.52       26.49       26.43       26.34       26.24       26.12       26.00       25.88       25.76       25.65    
        25.55       25.46       25.38       25.31       25.25       25.20       25.16       25.13       25.10       25.08    
        25.06       25.05       25.04       25.03       25.02       25.02       25.01       25.01       25.01       25.01    
        25.00       25.00       25.00       25.00       25.00       25.00       25.00       25.00       25.00       25.00    
  14    26.17       26.15       26.10       26.04       25.97       25.88       25.79       25.70       25.61       25.52    
        25.44       25.37       25.31       25.26       25.21       25.17       25.14       25.11       25.09       25.07    
        25.06       25.04       25.03       25.03       25.02       25.02       25.01       25.01       25.01       25.01    
        25.00       25.00       25.00       25.00       25.00       25.00       25.00       25.00       25.00       25.00    
  15    25.90       25.88       25.85       25.81       25.75       25.69       25.62       25.55       25.48       25.42    
        25.36       25.30       25.25       25.21       25.17       25.14       25.11       25.09       25.07       25.06    
        25.05       25.04       25.03       25.02       25.02       25.01       25.01       25.01       25.01       25.01    
        25.00       25.00       25.00       25.00       25.00       25.00       25.00       25.00       25.00       25.00    
  16    25.69       25.68       25.66       25.62       25.58       25.53       25.48       25.43       25.38       25.33    
        25.28       25.24       25.20       25.17       25.14       25.12       25.09       25.08       25.06       25.05    
        25.04       25.03       25.02       25.02       25.02       25.01       25.01       25.01       25.01       25.00    
        25.00       25.00       25.00       25.00       25.00       25.00       25.00       25.00       25.00       25.00    
  17    25.53       25.52       25.50       25.48       25.45       25.41       25.38       25.34       25.30       25.26    
        25.23       25.19       25.16       25.14       25.11       25.09       25.08       25.06       25.05       25.04    
        25.03       25.03       25.02       25.02       25.01       25.01       25.01       25.01       25.00       25.00    
        25.00       25.00       25.00       25.00       25.00       25.00       25.00       25.00       25.00       25.00    
  18    25.40       25.40       25.38       25.37       25.34       25.32       25.29       25.26       25.23       25.20    
        25.18       25.15       25.13       25.11       25.09       25.08       25.06       25.05       25.04       25.03    
        25.03       25.02       25.02       25.01       25.01       25.01       25.01       25.01       25.00       25.00    
        25.00       25.00       25.00       25.00       25.00       25.00       25.00       25.00       25.00       25.00    
  19    25.31       25.30       25.29       25.28       25.26       25.24       25.22       25.20       25.18       25.16    
        25.14       25.12       25.10       25.09       25.07       25.06       25.05       25.04       25.03       25.03    
        25.02       25.02       25.01       25.01       25.01       25.01       25.01       25.00       25.00       25.00    
        25.00       25.00       25.00       25.00       25.00       25.00       25.00       25.00       25.00       25.00    
  20    25.23       25.23       25.22       25.21       25.20       25.19       25.17       25.16       25.14       25.12    
        25.11       25.10       25.08       25.07       25.06       25.05       25.04       25.03       25.03       25.02    
        25.02       25.02       25.01       25.01       25.01       25.01       25.00       25.00       25.00       25.00    
        25.00       25.00       25.00       25.00       25.00       25.00       25.00       25.00       25.00       25.00    
  21    25.18       25.17       25.17       25.16       25.15       25.14       25.13       25.12       25.11       25.10    
        25.09       25.07       25.06       25.06       25.05       25.04       25.03       25.03       25.02       25.02    
        25.02       25.01       25.01       25.01       25.01       25.01       25.00       25.00       25.00       25.00    
        25.00       25.00       25.00       25.00       25.00       25.00       25.00       25.00       25.00       25.00    
  22    25.13       25.13       25.13       25.12       25.12       25.11       25.10       25.09       25.08       25.07    
        25.07       25.06       25.05       25.04       25.04       25.03       25.03       25.02       25.02       25.02    
        25.01       25.01       25.01       25.01       25.01       25.00       25.00       25.00       25.00       25.00    
        25.00       25.00       25.00       25.00       25.00       25.00       25.00       25.00       25.00       25.00    
  23    25.10       25.10       25.10       25.09       25.09       25.08       25.08       25.07       25.06       25.06    
        25.05       25.05       25.04       25.03       25.03       25.02       25.02       25.02       25.01       25.01    
        25.01       25.01       25.01       25.01       25.00       25.00       25.00       25.00       25.00       25.00    
        25.00       25.00       25.00       25.00       25.00       25.00       25.00       25.00       25.00       25.00    
  24    25.08       25.07       25.07       25.07       25.07       25.06       25.06       25.05       25.05       25.04    
        25.04       25.03       25.03       25.03       25.02       25.02       25.02       25.01       25.01       25.01    
        25.01       25.01       25.01       25.00       25.00       25.00       25.00       25.00       25.00       25.00    
        25.00       25.00       25.00       25.00       25.00       25.00       25.00       25.00       25.00       25.00    
  25    25.06       25.06       25.05       25.05       25.05       25.05       25.04       25.04       25.04       25.03    
        25.03       25.03       25.02       25.02       25.02       25.02       25.01       25.01       25.01       25.01    
        25.01       25.01       25.00       25.00       25.00       25.00       25.00       25.00       25.00       25.00    
        25.00       25.00       25.00       25.00       25.00       25.00       25.00       25.00       25.00       25.00    
  26    25.04       25.04       25.04       25.04       25.04       25.04       25.03       25.03       25.03       25.03    
        25.02       25.02       25.02       25.02       25.01       25.01       25.01       25.01       25.01       25.01    
        25.01       25.00       25.00       25.00       25.00       25.00       25.00       25.00       25.00       25.00    
        25.00       25.00       25.00       25.00       25.00       25.00       25.00       25.00       25.00       25.00    
  27    25.03       25.03       25.03       25.03       25.03       25.03       25.03       25.02       25.02       25.02    
        25.02       25.02       25.01       25.01       25.01       25.01       25.01       25.01       25.01       25.00    
        25.00       25.00       25.00       25.00       25.00       25.00       25.00       25.00       25.00       25.00    
        25.00       25.00       25.00       25.00       25.00       25.00       25.00       25.00       25.00       25.00    
  28    25.02       25.02       25.02       25.02       25.02       25.02       25.02       25.02       25.02       25.02    
        25.01       25.01       25.01       25.01       25.01       25.01       25.01       25.01       25.00       25.00    
        25.00       25.00       25.00       25.00       25.00       25.00       25.00       25.00       25.00       25.00    
        25.00       25.00       25.00       25.00       25.00       25.00       25.00       25.00       25.00       25.00    
  29    25.02       25.02       25.02       25.02       25.02       25.02       25.01       25.01       25.01       25.01    
        25.01       25.01       25.01       25.01       25.01       25.01       25.00       25.00       25.00       25.00    
        25.00       25.00       25.00       25.00       25.00       25.00       25.00       25.00       25.00       25.00    
        25.00       25.00       25.00       25.00       25.00       25.00       25.00       25.00       25.00       25.00    
  30    25.01       25.01       25.01       25.01       25.01       25.01       25.01       25.01       25.01       25.01    
        25.01       25.01       25.01       25.01       25.01       25.00       25.00       25.00       25.00       25.00    
        25.00       25.00       25.00       25.00       25.00       25.00       25.00       25.00       25.00       25.00    
        25.00       25.00       25.00       25.00       25.00       25.00       25.00       25.00       25.00       25.00    
  31    25.01       25.01       25.01       25.01       25.01       25.01       25.01       25.01       25.01       25.01    
        25.01       25.01       25.00       25.00       25.00       25.00       25.00       25.00       25.00       25.00    
        25.00       25.00       25.00       25.00       25.00       25.00       25.00       25.00       25.00       25.00    
        25.00       25.00       25.00       25.00       25.00       25.00       25.00       25.00       25.00       25.00    
  32    25.01       25.01       25.01       25.01       25.01       25.01       25.01       25.01       25.01       25.00    
        25.00       25.00       25.00       25.00       25.00       25.00       25.00       25.00       25.00       25.00    
        25.00       25.00       25.00       25.00       25.00       25.00       25.00       25.00       25.00       25.00    
        25.00       25.00       25.00       25.00       25.00       25.00       25.00       25.00       25.00       25.00    
  33    25.01       25.01       25.01       25.01       25.01       25.00       25.00       25.00       25.00       25.00    
        25.00       25.00       25.00       25.00       25.00       25.00       25.00       25.00       25.00       25.00    
        25.00       25.00       25.00       25.00       25.00       25.00       25.00       25.00       25.00       25.00    
        25.00       25.00       25.00       25.00       25.00       25.00       25.00       25.00       25.00       25.00    
  34    25.00       25.00       25.00       25.00       25.00       25.00       25.00       25.00       25.00       25.00    
        25.00       25.00       25.00       25.00       25.00       25.00       25.00       25.00       25.00       25.00    
        25.00       25.00       25.00       25.00       25.00       25.00       25.00       25.00       25.00       25.00    
        25.00       25.00       25.00       25.00       25.00       25.00       25.00       25.00       25.00       25.00    
  35    25.00       25.00       25.00       25.00       25.00       25.00       25.00       25.00       25.00       25.00    
        25.00       25.00       25.00       25.00       25.00       25.00       25.00       25.00       25.00       25.00    
        25.00       25.00       25.00       25.00       25.00       25.00       25.00       25.00       25.00       25.00    
        25.00       25.00       25.00       25.00       25.00       25.00       25.00       25.00       25.00       25.00    
  36    25.00       25.00       25.00       25.00       25.00       25.00       25.00       25.00       25.00       25.00    
        25.00       25.00       25.00       25.00       25.00       25.00       25.00       25.00       25.00       25.00    
        25.00       25.00       25.00       25.00       25.00       25.00       25.00       25.00       25.00       25.00    
        25.00       25.00       25.00       25.00       25.00       25.00       25.00       25.00       25.00       25.00    
  37    25.00       25.00       25.00       25.00       25.00       25.00       25.00       25.00       25.00       25.00    
        25.00       25.00       25.00       25.00       25.00       25.00       25.00       25.00       25.00       25.00    
        25.00       25.00       25.00       25.00       25.00       25.00       25.00       25.00       25.00       25.00    
        25.00       25.00       25.00       25.00       25.00       25.00       25.00       25.00       25.00       25.00    
  38    25.00       25.00       25.00       25.00       25.00       25.00       25.00       25.00       25.00       25.00    
        25.00       25.00       25.00       25.00       25.00       25.00       25.00       25.00       25.00       25.00    
        25.00       25.00       25.00       25.00       25.00       25.00       25.00       25.00       25.00       25.00    
        25.00       25.00       25.00       25.00       25.00       25.00       25.00       25.00       25.00       25.00    
  39    25.00       25.00       25.00       25.00       25.00       25.00       25.00       25.00       25.00       25.00    
        25.00       25.00       25.00       25.00       25.00       25.00       25.00       25.00       25.00       25.00    
        25.00       25.00       25.00       25.00       25.00       25.00       25.00       25.00       25.00       25.00    
        25.00       25.00       25.00       25.00       25.00       25.00       25.00       25.00       25.00       25.00    
  40    25.00       25.00       25.00       25.00       25.00       25.00       25.00       25.00       25.00       25.00    
        25.00       25.00       25.00       25.00       25.00       25.00       25.00       25.00       25.00       25.00    
        25.00       25.00       25.00       25.00       25.00       25.00       25.00       25.00       25.00       25.00    
        25.00       25.00       25.00       25.00       25.00       25.00       25.00       25.00       25.00       25.00    
1
              HEAD IN LAYER 13 AT END OF TIME STEP 1 IN STRESS PERIOD 3
  ---------------------------------------------------------------------------

            1           2           3           4           5           6           7           8           9          10
           11          12          13          14          15          16          17          18          19          20
           21          22          23          24          25          26          27          28          29          30
           31          32          33          34          35          36          37          38          39          40
 ........................................................................................................................
   1    44.05       42.59       39.87       37.18       34.88       32.98       31.41       30.12       29.07       28.21    
        27.52       26.96       26.52       26.18       25.90       25.69       25.53       25.40       25.31       25.23    
        25.18       25.13       25.10       25.08       25.06       25.04       25.03       25.02       25.02       25.01    
        25.01       25.01       25.01       25.00       25.00       25.00       25.00       25.00       25.00       25.00    
   2    42.59       41.31       38.91       36.51       34.42       32.66       31.19       29.96       28.95       28.13    
        27.46       26.92       26.49       26.15       25.89       25.68       25.52       25.40       25.30       25.23    
        25.17       25.13       25.10       25.07       25.06       25.04       25.03       25.02       25.02       25.01    
        25.01       25.01       25.01       25.00       25.00       25.00       25.00       25.00       25.00       25.00    
   3    39.87       38.91       37.20       35.34       33.62       32.10       30.78       29.67       28.74       27.97    
        27.34       26.84       26.43       26.11       25.86       25.66       25.50       25.38       25.29       25.22    
        25.17       25.13       25.10       25.07       25.06       25.04       25.03       25.02       25.02       25.01    
        25.01       25.01       25.01       25.00       25.00       25.00       25.00       25.00       25.00       25.00    
   4    37.18       36.51       35.34       33.98       32.63       31.37       30.25       29.28       28.45       27.75    
        27.18       26.72       26.34       26.05       25.81       25.62       25.48       25.37       25.28       25.21    
        25.16       25.12       25.09       25.07       25.05       25.04       25.03       25.02       25.02       25.01    
        25.01       25.01       25.01       25.00       25.00       25.00       25.00       25.00       25.00       25.00    
   5    34.88       34.42       33.62       32.63       31.59       30.58       29.65       28.82       28.11       27.50    
        26.99       26.58       26.24       25.97       25.75       25.58       25.45       25.34       25.26       25.20    
        25.15       25.12       25.09       25.07       25.05       25.04       25.03       25.02       25.02       25.01    
        25.01       25.01       25.01       25.00       25.00       25.00       25.00       25.00       25.00       25.00    
   6    32.98       32.66       32.10       31.37       30.58       29.78       29.03       28.35       27.74       27.22    
        26.79       26.42       26.12       25.88       25.69       25.54       25.41       25.32       25.25       25.19    
        25.14       25.11       25.08       25.06       25.05       25.04       25.03       25.02       25.02       25.01    
        25.01       25.01       25.00       25.00       25.00       25.00       25.00       25.00       25.00       25.00    
   7    31.41       31.19       30.78       30.25       29.65       29.03       28.43       27.87       27.38       26.94    
        26.57       26.26       26.00       25.79       25.62       25.48       25.38       25.29       25.22       25.17    
        25.13       25.10       25.08       25.06       25.04       25.03       25.03       25.02       25.01       25.01    
        25.01       25.01       25.00       25.00       25.00       25.00       25.00       25.00       25.00       25.00    
   8    30.12       29.96       29.67       29.28       28.82       28.35       27.87       27.43       27.03       26.67    
        26.36       26.10       25.88       25.70       25.55       25.43       25.34       25.26       25.20       25.16    
        25.12       25.09       25.07       25.05       25.04       25.03       25.02       25.02       25.01       25.01    
        25.01       25.01       25.00       25.00       25.00       25.00       25.00       25.00       25.00       25.00    
   9    29.07       28.95       28.74       28.45       28.11       27.74       27.38       27.03       26.70       26.41    
        26.16       25.94       25.76       25.61       25.48       25.38       25.30       25.23       25.18       25.14    
        25.11       25.08       25.06       25.05       25.04       25.03       25.02       25.02       25.01       25.01    
        25.01       25.01       25.00       25.00       25.00       25.00       25.00       25.00       25.00       25.00    
  10    28.21       28.13       27.97       27.75       27.50       27.22       26.94       26.67       26.41       26.18    
        25.98       25.80       25.65       25.52       25.42       25.33       25.26       25.21       25.16       25.13    
        25.10       25.08       25.06       25.04       25.03       25.03       25.02       25.02       25.01       25.01    
        25.01       25.01       25.00       25.00       25.00       25.00       25.00       25.00       25.00       25.00    
  11    27.52       27.46       27.34       27.18       26.99       26.79       26.57       26.36       26.16       25.98    
        25.82       25.67       25.55       25.44       25.36       25.29       25.23       25.18       25.14       25.11    
        25.09       25.07       25.05       25.04       25.03       25.02       25.02       25.01       25.01       25.01    
        25.01       25.00       25.00       25.00       25.00       25.00       25.00       25.00       25.00       25.00    
  12    26.96       26.92       26.84       26.72       26.58       26.42       26.26       26.10       25.94       25.80    
        25.67       25.56       25.46       25.37       25.30       25.24       25.19       25.15       25.12       25.10    
        25.07       25.06       25.05       25.04       25.03       25.02       25.02       25.01       25.01       25.01    
        25.01       25.00       25.00       25.00       25.00       25.00       25.00       25.00       25.00       25.00    
  13    26.52       26.49       26.43       26.34       26.24       26.12       26.00       25.88       25.76       25.65    
        25.55       25.46       25.38       25.31       25.25       25.20       25.16       25.13       25.10       25.08    
        25.06       25.05       25.04       25.03       25.02       25.02       25.01       25.01       25.01       25.01    
        25.00       25.00       25.00       25.00       25.00       25.00       25.00       25.00       25.00       25.00    
  14    26.18       26.15       26.11       26.05       25.97       25.88       25.79       25.70       25.61       25.52    
        25.44       25.37       25.31       25.26       25.21       25.17       25.14       25.11       25.09       25.07    
        25.06       25.04       25.03       25.03       25.02       25.02       25.01       25.01       25.01       25.01    
        25.00       25.00       25.00       25.00       25.00       25.00       25.00       25.00       25.00       25.00    
  15    25.90       25.89       25.86       25.81       25.75       25.69       25.62       25.55       25.48       25.42    
        25.36       25.30       25.25       25.21       25.17       25.14       25.12       25.09       25.07       25.06    
        25.05       25.04       25.03       25.02       25.02       25.01       25.01       25.01       25.01       25.01    
        25.00       25.00       25.00       25.00       25.00       25.00       25.00       25.00       25.00       25.00    
  16    25.69       25.68       25.66       25.62       25.58       25.54       25.48       25.43       25.38       25.33    
        25.29       25.24       25.20       25.17       25.14       25.12       25.10       25.08       25.06       25.05    
        25.04       25.03       25.03       25.02       25.02       25.01       25.01       25.01       25.01       25.00    
        25.00       25.00       25.00       25.00       25.00       25.00       25.00       25.00       25.00       25.00    
  17    25.53       25.52       25.50       25.48       25.45       25.41       25.38       25.34       25.30       25.26    
        25.23       25.19       25.16       25.14       25.12       25.10       25.08       25.06       25.05       25.04    
        25.03       25.03       25.02       25.02       25.01       25.01       25.01       25.01       25.00       25.00    
        25.00       25.00       25.00       25.00       25.00       25.00       25.00       25.00       25.00       25.00    
  18    25.40       25.40       25.38       25.37       25.34       25.32       25.29       25.26       25.23       25.21    
        25.18       25.15       25.13       25.11       25.09       25.08       25.06       25.05       25.04       25.03    
        25.03       25.02       25.02       25.01       25.01       25.01       25.01       25.01       25.00       25.00    
        25.00       25.00       25.00       25.00       25.00       25.00       25.00       25.00       25.00       25.00    
  19    25.31       25.30       25.29       25.28       25.26       25.25       25.22       25.20       25.18       25.16    
        25.14       25.12       25.10       25.09       25.07       25.06       25.05       25.04       25.03       25.03    
        25.02       25.02       25.01       25.01       25.01       25.01       25.01       25.00       25.00       25.00    
        25.00       25.00       25.00       25.00       25.00       25.00       25.00       25.00       25.00       25.00    
  20    25.23       25.23       25.22       25.21       25.20       25.19       25.17       25.16       25.14       25.13    
        25.11       25.10       25.08       25.07       25.06       25.05       25.04       25.03       25.03       25.02    
        25.02       25.02       25.01       25.01       25.01       25.01       25.00       25.00       25.00       25.00    
        25.00       25.00       25.00       25.00       25.00       25.00       25.00       25.00       25.00       25.00    
  21    25.18       25.17       25.17       25.16       25.15       25.14       25.13       25.12       25.11       25.10    
        25.09       25.07       25.06       25.06       25.05       25.04       25.03       25.03       25.02       25.02    
        25.02       25.01       25.01       25.01       25.01       25.01       25.00       25.00       25.00       25.00    
        25.00       25.00       25.00       25.00       25.00       25.00       25.00       25.00       25.00       25.00    
  22    25.13       25.13       25.13       25.12       25.12       25.11       25.10       25.09       25.08       25.08    
        25.07       25.06       25.05       25.04       25.04       25.03       25.03       25.02       25.02       25.02    
        25.01       25.01       25.01       25.01       25.01       25.00       25.00       25.00       25.00       25.00    
        25.00       25.00       25.00       25.00       25.00       25.00       25.00       25.00       25.00       25.00    
  23    25.10       25.10       25.10       25.09       25.09       25.08       25.08       25.07       25.06       25.06    
        25.05       25.05       25.04       25.03       25.03       25.03       25.02       25.02       25.01       25.01    
        25.01       25.01       25.01       25.01       25.00       25.00       25.00       25.00       25.00       25.00    
        25.00       25.00       25.00       25.00       25.00       25.00       25.00       25.00       25.00       25.00    
  24    25.08       25.07       25.07       25.07       25.07       25.06       25.06       25.05       25.05       25.04    
        25.04       25.04       25.03       25.03       25.02       25.02       25.02       25.01       25.01       25.01    
        25.01       25.01       25.01       25.00       25.00       25.00       25.00       25.00       25.00       25.00    
        25.00       25.00       25.00       25.00       25.00       25.00       25.00       25.00       25.00       25.00    
  25    25.06       25.06       25.06       25.05       25.05       25.05       25.04       25.04       25.04       25.03    
        25.03       25.03       25.02       25.02       25.02       25.02       25.01       25.01       25.01       25.01    
        25.01       25.01       25.00       25.00       25.00       25.00       25.00       25.00       25.00       25.00    
        25.00       25.00       25.00       25.00       25.00       25.00       25.00       25.00       25.00       25.00    
  26    25.04       25.04       25.04       25.04       25.04       25.04       25.03       25.03       25.03       25.03    
        25.02       25.02       25.02       25.02       25.01       25.01       25.01       25.01       25.01       25.01    
        25.01       25.00       25.00       25.00       25.00       25.00       25.00       25.00       25.00       25.00    
        25.00       25.00       25.00       25.00       25.00       25.00       25.00       25.00       25.00       25.00    
  27    25.03       25.03       25.03       25.03       25.03       25.03       25.03       25.02       25.02       25.02    
        25.02       25.02       25.01       25.01       25.01       25.01       25.01       25.01       25.01       25.00    
        25.00       25.00       25.00       25.00       25.00       25.00       25.00       25.00       25.00       25.00    
        25.00       25.00       25.00       25.00       25.00       25.00       25.00       25.00       25.00       25.00    
  28    25.02       25.02       25.02       25.02       25.02       25.02       25.02       25.02       25.02       25.02    
        25.01       25.01       25.01       25.01       25.01       25.01       25.01       25.01       25.00       25.00    
        25.00       25.00       25.00       25.00       25.00       25.00       25.00       25.00       25.00       25.00    
        25.00       25.00       25.00       25.00       25.00       25.00       25.00       25.00       25.00       25.00    
  29    25.02       25.02       25.02       25.02       25.02       25.02       25.01       25.01       25.01       25.01    
        25.01       25.01       25.01       25.01       25.01       25.01       25.00       25.00       25.00       25.00    
        25.00       25.00       25.00       25.00       25.00       25.00       25.00       25.00       25.00       25.00    
        25.00       25.00       25.00       25.00       25.00       25.00       25.00       25.00       25.00       25.00    
  30    25.01       25.01       25.01       25.01       25.01       25.01       25.01       25.01       25.01       25.01    
        25.01       25.01       25.01       25.01       25.01       25.00       25.00       25.00       25.00       25.00    
        25.00       25.00       25.00       25.00       25.00       25.00       25.00       25.00       25.00       25.00    
        25.00       25.00       25.00       25.00       25.00       25.00       25.00       25.00       25.00       25.00    
  31    25.01       25.01       25.01       25.01       25.01       25.01       25.01       25.01       25.01       25.01    
        25.01       25.01       25.00       25.00       25.00       25.00       25.00       25.00       25.00       25.00    
        25.00       25.00       25.00       25.00       25.00       25.00       25.00       25.00       25.00       25.00    
        25.00       25.00       25.00       25.00       25.00       25.00       25.00       25.00       25.00       25.00    
  32    25.01       25.01       25.01       25.01       25.01       25.01       25.01       25.01       25.01       25.01    
        25.00       25.00       25.00       25.00       25.00       25.00       25.00       25.00       25.00       25.00    
        25.00       25.00       25.00       25.00       25.00       25.00       25.00       25.00       25.00       25.00    
        25.00       25.00       25.00       25.00       25.00       25.00       25.00       25.00       25.00       25.00    
  33    25.01       25.01       25.01       25.01       25.01       25.00       25.00       25.00       25.00       25.00    
        25.00       25.00       25.00       25.00       25.00       25.00       25.00       25.00       25.00       25.00    
        25.00       25.00       25.00       25.00       25.00       25.00       25.00       25.00       25.00       25.00    
        25.00       25.00       25.00       25.00       25.00       25.00       25.00       25.00       25.00       25.00    
  34    25.00       25.00       25.00       25.00       25.00       25.00       25.00       25.00       25.00       25.00    
        25.00       25.00       25.00       25.00       25.00       25.00       25.00       25.00       25.00       25.00    
        25.00       25.00       25.00       25.00       25.00       25.00       25.00       25.00       25.00       25.00    
        25.00       25.00       25.00       25.00       25.00       25.00       25.00       25.00       25.00       25.00    
  35    25.00       25.00       25.00       25.00       25.00       25.00       25.00       25.00       25.00       25.00    
        25.00       25.00       25.00       25.00       25.00       25.00       25.00       25.00       25.00       25.00    
        25.00       25.00       25.00       25.00       25.00       25.00       25.00       25.00       25.00       25.00    
        25.00       25.00       25.00       25.00       25.00       25.00       25.00       25.00       25.00       25.00    
  36    25.00       25.00       25.00       25.00       25.00       25.00       25.00       25.00       25.00       25.00    
        25.00       25.00       25.00       25.00       25.00       25.00       25.00       25.00       25.00       25.00    
        25.00       25.00       25.00       25.00       25.00       25.00       25.00       25.00       25.00       25.00    
        25.00       25.00       25.00       25.00       25.00       25.00       25.00       25.00       25.00       25.00    
  37    25.00       25.00       25.00       25.00       25.00       25.00       25.00       25.00       25.00       25.00    
        25.00       25.00       25.00       25.00       25.00       25.00       25.00       25.00       25.00       25.00    
        25.00       25.00       25.00       25.00       25.00       25.00       25.00       25.00       25.00       25.00    
        25.00       25.00       25.00       25.00       25.00       25.00       25.00       25.00       25.00       25.00    
  38    25.00       25.00       25.00       25.00       25.00       25.00       25.00       25.00       25.00       25.00    
        25.00       25.00       25.00       25.00       25.00       25.00       25.00       25.00       25.00       25.00    
        25.00       25.00       25.00       25.00       25.00       25.00       25.00       25.00       25.00       25.00    
        25.00       25.00       25.00       25.00       25.00       25.00       25.00       25.00       25.00       25.00    
  39    25.00       25.00       25.00       25.00       25.00       25.00       25.00       25.00       25.00       25.00    
        25.00       25.00       25.00       25.00       25.00       25.00       25.00       25.00       25.00       25.00    
        25.00       25.00       25.00       25.00       25.00       25.00       25.00       25.00       25.00       25.00    
        25.00       25.00       25.00       25.00       25.00       25.00       25.00       25.00       25.00       25.00    
  40    25.00       25.00       25.00       25.00       25.00       25.00       25.00       25.00       25.00       25.00    
        25.00       25.00       25.00       25.00       25.00       25.00       25.00       25.00       25.00       25.00    
        25.00       25.00       25.00       25.00       25.00       25.00       25.00       25.00       25.00       25.00    
        25.00       25.00       25.00       25.00       25.00       25.00       25.00       25.00       25.00       25.00    
1
              HEAD IN LAYER 14 AT END OF TIME STEP 1 IN STRESS PERIOD 3
  ---------------------------------------------------------------------------

            1           2           3           4           5           6           7           8           9          10
           11          12          13          14          15          16          17          18          19          20
           21          22          23          24          25          26          27          28          29          30
           31          32          33          34          35          36          37          38          39          40
 ........................................................................................................................
   1    43.95       42.51       39.84       37.17       34.87       32.98       31.41       30.12       29.07       28.21    
        27.52       26.96       26.52       26.18       25.91       25.69       25.53       25.40       25.31       25.23    
        25.18       25.13       25.10       25.08       25.06       25.04       25.03       25.02       25.02       25.01    
        25.01       25.01       25.01       25.00       25.00       25.00       25.00       25.00       25.00       25.00    
   2    42.51       41.24       38.89       36.51       34.42       32.66       31.19       29.97       28.96       28.13    
        27.46       26.92       26.49       26.15       25.89       25.68       25.52       25.40       25.30       25.23    
        25.17       25.13       25.10       25.08       25.06       25.04       25.03       25.02       25.02       25.01    
        25.01       25.01       25.01       25.00       25.00       25.00       25.00       25.00       25.00       25.00    
   3    39.84       38.89       37.19       35.34       33.62       32.10       30.79       29.67       28.74       27.97    
        27.34       26.84       26.43       26.11       25.86       25.66       25.50       25.39       25.29       25.22    
        25.17       25.13       25.10       25.07       25.06       25.04       25.03       25.02       25.02       25.01    
        25.01       25.01       25.01       25.00       25.00       25.00       25.00       25.00       25.00       25.00    
   4    37.17       36.51       35.34       33.98       32.63       31.37       30.25       29.28       28.45       27.76    
        27.19       26.72       26.35       26.05       25.81       25.62       25.48       25.37       25.28       25.21    
        25.16       25.12       25.09       25.07       25.05       25.04       25.03       25.02       25.02       25.01    
        25.01       25.01       25.01       25.00       25.00       25.00       25.00       25.00       25.00       25.00    
   5    34.87       34.42       33.62       32.63       31.59       30.58       29.65       28.82       28.11       27.50    
        27.00       26.58       26.24       25.97       25.75       25.58       25.45       25.35       25.26       25.20    
        25.15       25.12       25.09       25.07       25.05       25.04       25.03       25.02       25.02       25.01    
        25.01       25.01       25.01       25.00       25.00       25.00       25.00       25.00       25.00       25.00    
   6    32.98       32.66       32.10       31.37       30.58       29.78       29.03       28.35       27.74       27.23    
        26.79       26.42       26.12       25.88       25.69       25.54       25.41       25.32       25.25       25.19    
        25.14       25.11       25.08       25.06       25.05       25.04       25.03       25.02       25.02       25.01    
        25.01       25.01       25.00       25.00       25.00       25.00       25.00       25.00       25.00       25.00    
   7    31.41       31.19       30.79       30.25       29.65       29.03       28.43       27.88       27.38       26.94    
        26.57       26.26       26.00       25.79       25.62       25.49       25.38       25.29       25.23       25.17    
        25.13       25.10       25.08       25.06       25.04       25.03       25.03       25.02       25.01       25.01    
        25.01       25.01       25.00       25.00       25.00       25.00       25.00       25.00       25.00       25.00    
   8    30.12       29.97       29.67       29.28       28.82       28.35       27.88       27.43       27.03       26.67    
        26.36       26.10       25.88       25.70       25.55       25.43       25.34       25.26       25.20       25.16    
        25.12       25.09       25.07       25.05       25.04       25.03       25.02       25.02       25.01       25.01    
        25.01       25.01       25.00       25.00       25.00       25.00       25.00       25.00       25.00       25.00    
   9    29.07       28.96       28.74       28.45       28.11       27.74       27.38       27.03       26.71       26.42    
        26.16       25.95       25.76       25.61       25.48       25.38       25.30       25.23       25.18       25.14    
        25.11       25.08       25.06       25.05       25.04       25.03       25.02       25.02       25.01       25.01    
        25.01       25.01       25.00       25.00       25.00       25.00       25.00       25.00       25.00       25.00    
  10    28.21       28.13       27.97       27.76       27.50       27.23       26.94       26.67       26.42       26.19    
        25.98       25.80       25.65       25.52       25.42       25.33       25.26       25.21       25.16       25.13    
        25.10       25.08       25.06       25.04       25.03       25.03       25.02       25.02       25.01       25.01    
        25.01       25.01       25.00       25.00       25.00       25.00       25.00       25.00       25.00       25.00    
  11    27.52       27.46       27.34       27.19       27.00       26.79       26.57       26.36       26.16       25.98    
        25.82       25.67       25.55       25.45       25.36       25.29       25.23       25.18       25.14       25.11    
        25.09       25.07       25.05       25.04       25.03       25.02       25.02       25.01       25.01       25.01    
        25.01       25.00       25.00       25.00       25.00       25.00       25.00       25.00       25.00       25.00    
  12    26.96       26.92       26.84       26.72       26.58       26.42       26.26       26.10       25.95       25.80    
        25.67       25.56       25.46       25.37       25.30       25.24       25.19       25.15       25.12       25.10    
        25.07       25.06       25.05       25.04       25.03       25.02       25.02       25.01       25.01       25.01    
        25.01       25.00       25.00       25.00       25.00       25.00       25.00       25.00       25.00       25.00    
  13    26.52       26.49       26.43       26.35       26.24       26.12       26.00       25.88       25.76       25.65    
        25.55       25.46       25.38       25.31       25.25       25.21       25.16       25.13       25.10       25.08    
        25.06       25.05       25.04       25.03       25.02       25.02       25.01       25.01       25.01       25.01    
        25.00       25.00       25.00       25.00       25.00       25.00       25.00       25.00       25.00       25.00    
  14    26.18       26.15       26.11       26.05       25.97       25.88       25.79       25.70       25.61       25.52    
        25.45       25.37       25.31       25.26       25.21       25.17       25.14       25.11       25.09       25.07    
        25.06       25.04       25.03       25.03       25.02       25.02       25.01       25.01       25.01       25.01    
        25.00       25.00       25.00       25.00       25.00       25.00       25.00       25.00       25.00       25.00    
  15    25.91       25.89       25.86       25.81       25.75       25.69       25.62       25.55       25.48       25.42    
        25.36       25.30       25.25       25.21       25.17       25.14       25.12       25.09       25.07       25.06    
        25.05       25.04       25.03       25.02       25.02       25.01       25.01       25.01       25.01       25.01    
        25.00       25.00       25.00       25.00       25.00       25.00       25.00       25.00       25.00       25.00    
  16    25.69       25.68       25.66       25.62       25.58       25.54       25.49       25.43       25.38       25.33    
        25.29       25.24       25.21       25.17       25.14       25.12       25.10       25.08       25.06       25.05    
        25.04       25.03       25.03       25.02       25.02       25.01       25.01       25.01       25.01       25.00    
        25.00       25.00       25.00       25.00       25.00       25.00       25.00       25.00       25.00       25.00    
  17    25.53       25.52       25.50       25.48       25.45       25.41       25.38       25.34       25.30       25.26    
        25.23       25.19       25.16       25.14       25.12       25.10       25.08       25.06       25.05       25.04    
        25.03       25.03       25.02       25.02       25.01       25.01       25.01       25.01       25.00       25.00    
        25.00       25.00       25.00       25.00       25.00       25.00       25.00       25.00       25.00       25.00    
  18    25.40       25.40       25.39       25.37       25.35       25.32       25.29       25.26       25.23       25.21    
        25.18       25.15       25.13       25.11       25.09       25.08       25.06       25.05       25.04       25.03    
        25.03       25.02       25.02       25.01       25.01       25.01       25.01       25.01       25.00       25.00    
        25.00       25.00       25.00       25.00       25.00       25.00       25.00       25.00       25.00       25.00    
  19    25.31       25.30       25.29       25.28       25.26       25.25       25.23       25.20       25.18       25.16    
        25.14       25.12       25.10       25.09       25.07       25.06       25.05       25.04       25.03       25.03    
        25.02       25.02       25.01       25.01       25.01       25.01       25.01       25.00       25.00       25.00    
        25.00       25.00       25.00       25.00       25.00       25.00       25.00       25.00       25.00       25.00    
  20    25.23       25.23       25.22       25.21       25.20       25.19       25.17       25.16       25.14       25.13    
        25.11       25.10       25.08       25.07       25.06       25.05       25.04       25.03       25.03       25.02    
        25.02       25.02       25.01       25.01       25.01       25.01       25.01       25.00       25.00       25.00    
        25.00       25.00       25.00       25.00       25.00       25.00       25.00       25.00       25.00       25.00    
  21    25.18       25.17       25.17       25.16       25.15       25.14       25.13       25.12       25.11       25.10    
        25.09       25.07       25.06       25.06       25.05       25.04       25.03       25.03       25.02       25.02    
        25.02       25.01       25.01       25.01       25.01       25.01       25.00       25.00       25.00       25.00    
        25.00       25.00       25.00       25.00       25.00       25.00       25.00       25.00       25.00       25.00    
  22    25.13       25.13       25.13       25.12       25.12       25.11       25.10       25.09       25.08       25.08    
        25.07       25.06       25.05       25.04       25.04       25.03       25.03       25.02       25.02       25.02    
        25.01       25.01       25.01       25.01       25.01       25.00       25.00       25.00       25.00       25.00    
        25.00       25.00       25.00       25.00       25.00       25.00       25.00       25.00       25.00       25.00    
  23    25.10       25.10       25.10       25.09       25.09       25.08       25.08       25.07       25.06       25.06    
        25.05       25.05       25.04       25.03       25.03       25.03       25.02       25.02       25.01       25.01    
        25.01       25.01       25.01       25.01       25.00       25.00       25.00       25.00       25.00       25.00    
        25.00       25.00       25.00       25.00       25.00       25.00       25.00       25.00       25.00       25.00    
  24    25.08       25.08       25.07       25.07       25.07       25.06       25.06       25.05       25.05       25.04    
        25.04       25.04       25.03       25.03       25.02       25.02       25.02       25.01       25.01       25.01    
        25.01       25.01       25.01       25.00       25.00       25.00       25.00       25.00       25.00       25.00    
        25.00       25.00       25.00       25.00       25.00       25.00       25.00       25.00       25.00       25.00    
  25    25.06       25.06       25.06       25.05       25.05       25.05       25.04       25.04       25.04       25.03    
        25.03       25.03       25.02       25.02       25.02       25.02       25.01       25.01       25.01       25.01    
        25.01       25.01       25.00       25.00       25.00       25.00       25.00       25.00       25.00       25.00    
        25.00       25.00       25.00       25.00       25.00       25.00       25.00       25.00       25.00       25.00    
  26    25.04       25.04       25.04       25.04       25.04       25.04       25.03       25.03       25.03       25.03    
        25.02       25.02       25.02       25.02       25.01       25.01       25.01       25.01       25.01       25.01    
        25.01       25.00       25.00       25.00       25.00       25.00       25.00       25.00       25.00       25.00    
        25.00       25.00       25.00       25.00       25.00       25.00       25.00       25.00       25.00       25.00    
  27    25.03       25.03       25.03       25.03       25.03       25.03       25.03       25.02       25.02       25.02    
        25.02       25.02       25.01       25.01       25.01       25.01       25.01       25.01       25.01       25.01    
        25.00       25.00       25.00       25.00       25.00       25.00       25.00       25.00       25.00       25.00    
        25.00       25.00       25.00       25.00       25.00       25.00       25.00       25.00       25.00       25.00    
  28    25.02       25.02       25.02       25.02       25.02       25.02       25.02       25.02       25.02       25.02    
        25.01       25.01       25.01       25.01       25.01       25.01       25.01       25.01       25.00       25.00    
        25.00       25.00       25.00       25.00       25.00       25.00       25.00       25.00       25.00       25.00    
        25.00       25.00       25.00       25.00       25.00       25.00       25.00       25.00       25.00       25.00    
  29    25.02       25.02       25.02       25.02       25.02       25.02       25.01       25.01       25.01       25.01    
        25.01       25.01       25.01       25.01       25.01       25.01       25.00       25.00       25.00       25.00    
        25.00       25.00       25.00       25.00       25.00       25.00       25.00       25.00       25.00       25.00    
        25.00       25.00       25.00       25.00       25.00       25.00       25.00       25.00       25.00       25.00    
  30    25.01       25.01       25.01       25.01       25.01       25.01       25.01       25.01       25.01       25.01    
        25.01       25.01       25.01       25.01       25.01       25.00       25.00       25.00       25.00       25.00    
        25.00       25.00       25.00       25.00       25.00       25.00       25.00       25.00       25.00       25.00    
        25.00       25.00       25.00       25.00       25.00       25.00       25.00       25.00       25.00       25.00    
  31    25.01       25.01       25.01       25.01       25.01       25.01       25.01       25.01       25.01       25.01    
        25.01       25.01       25.00       25.00       25.00       25.00       25.00       25.00       25.00       25.00    
        25.00       25.00       25.00       25.00       25.00       25.00       25.00       25.00       25.00       25.00    
        25.00       25.00       25.00       25.00       25.00       25.00       25.00       25.00       25.00       25.00    
  32    25.01       25.01       25.01       25.01       25.01       25.01       25.01       25.01       25.01       25.01    
        25.00       25.00       25.00       25.00       25.00       25.00       25.00       25.00       25.00       25.00    
        25.00       25.00       25.00       25.00       25.00       25.00       25.00       25.00       25.00       25.00    
        25.00       25.00       25.00       25.00       25.00       25.00       25.00       25.00       25.00       25.00    
  33    25.01       25.01       25.01       25.01       25.01       25.00       25.00       25.00       25.00       25.00    
        25.00       25.00       25.00       25.00       25.00       25.00       25.00       25.00       25.00       25.00    
        25.00       25.00       25.00       25.00       25.00       25.00       25.00       25.00       25.00       25.00    
        25.00       25.00       25.00       25.00       25.00       25.00       25.00       25.00       25.00       25.00    
  34    25.00       25.00       25.00       25.00       25.00       25.00       25.00       25.00       25.00       25.00    
        25.00       25.00       25.00       25.00       25.00       25.00       25.00       25.00       25.00       25.00    
        25.00       25.00       25.00       25.00       25.00       25.00       25.00       25.00       25.00       25.00    
        25.00       25.00       25.00       25.00       25.00       25.00       25.00       25.00       25.00       25.00    
  35    25.00       25.00       25.00       25.00       25.00       25.00       25.00       25.00       25.00       25.00    
        25.00       25.00       25.00       25.00       25.00       25.00       25.00       25.00       25.00       25.00    
        25.00       25.00       25.00       25.00       25.00       25.00       25.00       25.00       25.00       25.00    
        25.00       25.00       25.00       25.00       25.00       25.00       25.00       25.00       25.00       25.00    
  36    25.00       25.00       25.00       25.00       25.00       25.00       25.00       25.00       25.00       25.00    
        25.00       25.00       25.00       25.00       25.00       25.00       25.00       25.00       25.00       25.00    
        25.00       25.00       25.00       25.00       25.00       25.00       25.00       25.00       25.00       25.00    
        25.00       25.00       25.00       25.00       25.00       25.00       25.00       25.00       25.00       25.00    
  37    25.00       25.00       25.00       25.00       25.00       25.00       25.00       25.00       25.00       25.00    
        25.00       25.00       25.00       25.00       25.00       25.00       25.00       25.00       25.00       25.00    
        25.00       25.00       25.00       25.00       25.00       25.00       25.00       25.00       25.00       25.00    
        25.00       25.00       25.00       25.00       25.00       25.00       25.00       25.00       25.00       25.00    
  38    25.00       25.00       25.00       25.00       25.00       25.00       25.00       25.00       25.00       25.00    
        25.00       25.00       25.00       25.00       25.00       25.00       25.00       25.00       25.00       25.00    
        25.00       25.00       25.00       25.00       25.00       25.00       25.00       25.00       25.00       25.00    
        25.00       25.00       25.00       25.00       25.00       25.00       25.00       25.00       25.00       25.00    
  39    25.00       25.00       25.00       25.00       25.00       25.00       25.00       25.00       25.00       25.00    
        25.00       25.00       25.00       25.00       25.00       25.00       25.00       25.00       25.00       25.00    
        25.00       25.00       25.00       25.00       25.00       25.00       25.00       25.00       25.00       25.00    
        25.00       25.00       25.00       25.00       25.00       25.00       25.00       25.00       25.00       25.00    
  40    25.00       25.00       25.00       25.00       25.00       25.00       25.00       25.00       25.00       25.00    
        25.00       25.00       25.00       25.00       25.00       25.00       25.00       25.00       25.00       25.00    
        25.00       25.00       25.00       25.00       25.00       25.00       25.00       25.00       25.00       25.00    
        25.00       25.00       25.00       25.00       25.00       25.00       25.00       25.00       25.00       25.00    

 HEAD WILL BE SAVED ON UNIT   51 AT END OF TIME STEP    1, STRESS PERIOD    3



         TIME SUMMARY AT END OF TIME STEP    1 IN STRESS PERIOD    3
                    SECONDS     MINUTES      HOURS       DAYS        YEARS
                    -----------------------------------------------------------
   TIME STEP LENGTH 9.76828E+06 1.62805E+05  2713.4      113.06     0.30954    
 STRESS PERIOD TIME 9.76828E+06 1.62805E+05  2713.4      113.06     0.30954    
         TOTAL TIME 7.09395E+07 1.18232E+06  19705.      821.06      2.2479    
1
 
 SOLVING FOR HEAD 
                                                   Max.-Head-Change                        Max.-Flux-Residual
  Residual-Control   Outer-Iter.   Inner-Iter.     Column Row Layer    Max.-Head-Change    Column Row Layer    Max.-Flux-Residual            L2-New               L2-Old           Solver-Max-Delh
          0                 1           3             3    2     5       0.8416326472E+00       4    1    7       0.2367550998E+02      0.1979296468E+03      0.1854836282E-01      0.8416326472E+00
          0                 2           2             3    2     5      -0.1437760626E+00       5    1    7      -0.3047385719E+02      0.9611585984E+02      0.1979296468E+03     -0.1437760626E+00
          0                 3           2             2    3     5       0.9281774230E-02       5    1    7       0.2072024235E+01      0.6560252426E+01      0.9611585984E+02      0.9281774230E-02
          0                 4           1             2    3     5      -0.3677443181E-03       5    1    7      -0.8499541384E-01      0.2689897966E+00      0.6560252426E+01     -0.3677443181E-03
          0                 5           1             2    3     5       0.4720668972E-05       5    1    7       0.1076758403E-02      0.3416385637E-02      0.2689897966E+00      0.4720668972E-05

    ------------------------------------------------
       NWT REQUIRED            5 OUTER ITERATIONS 
       AND A TOTAL OF          9 INNER ITERATIONS.
    ------------------------------------------------

 OUTPUT CONTROL FOR STRESS PERIOD    3   TIME STEP    2
    SAVE BUDGET
    PRINT HEAD FOR ALL LAYERS
    SAVE HEAD FOR ALL LAYERS
 UBDSV1 SAVING "         STORAGE" ON UNIT  32 AT TIME STEP 2, STRESS PERIOD 3
 UBDSV2 SAVING "   CONSTANT HEAD" ON UNIT  32 AT TIME STEP 2, STRESS PERIOD 3
 UBDSV1 SAVING "FLOW RIGHT FACE " ON UNIT  32 AT TIME STEP 2, STRESS PERIOD 3
 UBDSV1 SAVING "FLOW FRONT FACE " ON UNIT  32 AT TIME STEP 2, STRESS PERIOD 3
 UBDSV1 SAVING "FLOW LOWER FACE " ON UNIT  32 AT TIME STEP 2, STRESS PERIOD 3
 UBDSV3 SAVING "        RECHARGE" ON UNIT  32 AT TIME STEP 2, STRESS PERIOD 3
1
              HEAD IN LAYER 1 AT END OF TIME STEP 2 IN STRESS PERIOD 3
  ---------------------------------------------------------------------------

            1           2           3           4           5           6           7           8           9          10
           11          12          13          14          15          16          17          18          19          20
           21          22          23          24          25          26          27          28          29          30
           31          32          33          34          35          36          37          38          39          40
 ........................................................................................................................
   1   -99.90      -99.90      -99.90      -99.90      -99.90      -99.90      -99.90      -99.90      -99.90      -99.90    
       -99.90      -99.90      -99.90      -99.90      -99.90      -99.90      -99.90      -99.90      -99.90      -99.90    
       -99.90      -99.90      -99.90      -99.90      -99.90      -99.90      -99.90      -99.90      -99.90      -99.90    
       -99.90      -99.90      -99.90      -99.90      -99.90      -99.90      -99.90      -99.90      -99.90      -99.90    
   2   -99.90      -99.90      -99.90      -99.90      -99.90      -99.90      -99.90      -99.90      -99.90      -99.90    
       -99.90      -99.90      -99.90      -99.90      -99.90      -99.90      -99.90      -99.90      -99.90      -99.90    
       -99.90      -99.90      -99.90      -99.90      -99.90      -99.90      -99.90      -99.90      -99.90      -99.90    
       -99.90      -99.90      -99.90      -99.90      -99.90      -99.90      -99.90      -99.90      -99.90      -99.90    
   3   -99.90      -99.90      -99.90      -99.90      -99.90      -99.90      -99.90      -99.90      -99.90      -99.90    
       -99.90      -99.90      -99.90      -99.90      -99.90      -99.90      -99.90      -99.90      -99.90      -99.90    
       -99.90      -99.90      -99.90      -99.90      -99.90      -99.90      -99.90      -99.90      -99.90      -99.90    
       -99.90      -99.90      -99.90      -99.90      -99.90      -99.90      -99.90      -99.90      -99.90      -99.90    
   4   -99.90      -99.90      -99.90      -99.90      -99.90      -99.90      -99.90      -99.90      -99.90      -99.90    
       -99.90      -99.90      -99.90      -99.90      -99.90      -99.90      -99.90      -99.90      -99.90      -99.90    
       -99.90      -99.90      -99.90      -99.90      -99.90      -99.90      -99.90      -99.90      -99.90      -99.90    
       -99.90      -99.90      -99.90      -99.90      -99.90      -99.90      -99.90      -99.90      -99.90      -99.90    
   5   -99.90      -99.90      -99.90      -99.90      -99.90      -99.90      -99.90      -99.90      -99.90      -99.90    
       -99.90      -99.90      -99.90      -99.90      -99.90      -99.90      -99.90      -99.90      -99.90      -99.90    
       -99.90      -99.90      -99.90      -99.90      -99.90      -99.90      -99.90      -99.90      -99.90      -99.90    
       -99.90      -99.90      -99.90      -99.90      -99.90      -99.90      -99.90      -99.90      -99.90      -99.90    
   6   -99.90      -99.90      -99.90      -99.90      -99.90      -99.90      -99.90      -99.90      -99.90      -99.90    
       -99.90      -99.90      -99.90      -99.90      -99.90      -99.90      -99.90      -99.90      -99.90      -99.90    
       -99.90      -99.90      -99.90      -99.90      -99.90      -99.90      -99.90      -99.90      -99.90      -99.90    
       -99.90      -99.90      -99.90      -99.90      -99.90      -99.90      -99.90      -99.90      -99.90      -99.90    
   7   -99.90      -99.90      -99.90      -99.90      -99.90      -99.90      -99.90      -99.90      -99.90      -99.90    
       -99.90      -99.90      -99.90      -99.90      -99.90      -99.90      -99.90      -99.90      -99.90      -99.90    
       -99.90      -99.90      -99.90      -99.90      -99.90      -99.90      -99.90      -99.90      -99.90      -99.90    
       -99.90      -99.90      -99.90      -99.90      -99.90      -99.90      -99.90      -99.90      -99.90      -99.90    
   8   -99.90      -99.90      -99.90      -99.90      -99.90      -99.90      -99.90      -99.90      -99.90      -99.90    
       -99.90      -99.90      -99.90      -99.90      -99.90      -99.90      -99.90      -99.90      -99.90      -99.90    
       -99.90      -99.90      -99.90      -99.90      -99.90      -99.90      -99.90      -99.90      -99.90      -99.90    
       -99.90      -99.90      -99.90      -99.90      -99.90      -99.90      -99.90      -99.90      -99.90      -99.90    
   9   -99.90      -99.90      -99.90      -99.90      -99.90      -99.90      -99.90      -99.90      -99.90      -99.90    
       -99.90      -99.90      -99.90      -99.90      -99.90      -99.90      -99.90      -99.90      -99.90      -99.90    
       -99.90      -99.90      -99.90      -99.90      -99.90      -99.90      -99.90      -99.90      -99.90      -99.90    
       -99.90      -99.90      -99.90      -99.90      -99.90      -99.90      -99.90      -99.90      -99.90      -99.90    
  10   -99.90      -99.90      -99.90      -99.90      -99.90      -99.90      -99.90      -99.90      -99.90      -99.90    
       -99.90      -99.90      -99.90      -99.90      -99.90      -99.90      -99.90      -99.90      -99.90      -99.90    
       -99.90      -99.90      -99.90      -99.90      -99.90      -99.90      -99.90      -99.90      -99.90      -99.90    
       -99.90      -99.90      -99.90      -99.90      -99.90      -99.90      -99.90      -99.90      -99.90      -99.90    
  11   -99.90      -99.90      -99.90      -99.90      -99.90      -99.90      -99.90      -99.90      -99.90      -99.90    
       -99.90      -99.90      -99.90      -99.90      -99.90      -99.90      -99.90      -99.90      -99.90      -99.90    
       -99.90      -99.90      -99.90      -99.90      -99.90      -99.90      -99.90      -99.90      -99.90      -99.90    
       -99.90      -99.90      -99.90      -99.90      -99.90      -99.90      -99.90      -99.90      -99.90      -99.90    
  12   -99.90      -99.90      -99.90      -99.90      -99.90      -99.90      -99.90      -99.90      -99.90      -99.90    
       -99.90      -99.90      -99.90      -99.90      -99.90      -99.90      -99.90      -99.90      -99.90      -99.90    
       -99.90      -99.90      -99.90      -99.90      -99.90      -99.90      -99.90      -99.90      -99.90      -99.90    
       -99.90      -99.90      -99.90      -99.90      -99.90      -99.90      -99.90      -99.90      -99.90      -99.90    
  13   -99.90      -99.90      -99.90      -99.90      -99.90      -99.90      -99.90      -99.90      -99.90      -99.90    
       -99.90      -99.90      -99.90      -99.90      -99.90      -99.90      -99.90      -99.90      -99.90      -99.90    
       -99.90      -99.90      -99.90      -99.90      -99.90      -99.90      -99.90      -99.90      -99.90      -99.90    
       -99.90      -99.90      -99.90      -99.90      -99.90      -99.90      -99.90      -99.90      -99.90      -99.90    
  14   -99.90      -99.90      -99.90      -99.90      -99.90      -99.90      -99.90      -99.90      -99.90      -99.90    
       -99.90      -99.90      -99.90      -99.90      -99.90      -99.90      -99.90      -99.90      -99.90      -99.90    
       -99.90      -99.90      -99.90      -99.90      -99.90      -99.90      -99.90      -99.90      -99.90      -99.90    
       -99.90      -99.90      -99.90      -99.90      -99.90      -99.90      -99.90      -99.90      -99.90      -99.90    
  15   -99.90      -99.90      -99.90      -99.90      -99.90      -99.90      -99.90      -99.90      -99.90      -99.90    
       -99.90      -99.90      -99.90      -99.90      -99.90      -99.90      -99.90      -99.90      -99.90      -99.90    
       -99.90      -99.90      -99.90      -99.90      -99.90      -99.90      -99.90      -99.90      -99.90      -99.90    
       -99.90      -99.90      -99.90      -99.90      -99.90      -99.90      -99.90      -99.90      -99.90      -99.90    
  16   -99.90      -99.90      -99.90      -99.90      -99.90      -99.90      -99.90      -99.90      -99.90      -99.90    
       -99.90      -99.90      -99.90      -99.90      -99.90      -99.90      -99.90      -99.90      -99.90      -99.90    
       -99.90      -99.90      -99.90      -99.90      -99.90      -99.90      -99.90      -99.90      -99.90      -99.90    
       -99.90      -99.90      -99.90      -99.90      -99.90      -99.90      -99.90      -99.90      -99.90      -99.90    
  17   -99.90      -99.90      -99.90      -99.90      -99.90      -99.90      -99.90      -99.90      -99.90      -99.90    
       -99.90      -99.90      -99.90      -99.90      -99.90      -99.90      -99.90      -99.90      -99.90      -99.90    
       -99.90      -99.90      -99.90      -99.90      -99.90      -99.90      -99.90      -99.90      -99.90      -99.90    
       -99.90      -99.90      -99.90      -99.90      -99.90      -99.90      -99.90      -99.90      -99.90      -99.90    
  18   -99.90      -99.90      -99.90      -99.90      -99.90      -99.90      -99.90      -99.90      -99.90      -99.90    
       -99.90      -99.90      -99.90      -99.90      -99.90      -99.90      -99.90      -99.90      -99.90      -99.90    
       -99.90      -99.90      -99.90      -99.90      -99.90      -99.90      -99.90      -99.90      -99.90      -99.90    
       -99.90      -99.90      -99.90      -99.90      -99.90      -99.90      -99.90      -99.90      -99.90      -99.90    
  19   -99.90      -99.90      -99.90      -99.90      -99.90      -99.90      -99.90      -99.90      -99.90      -99.90    
       -99.90      -99.90      -99.90      -99.90      -99.90      -99.90      -99.90      -99.90      -99.90      -99.90    
       -99.90      -99.90      -99.90      -99.90      -99.90      -99.90      -99.90      -99.90      -99.90      -99.90    
       -99.90      -99.90      -99.90      -99.90      -99.90      -99.90      -99.90      -99.90      -99.90      -99.90    
  20   -99.90      -99.90      -99.90      -99.90      -99.90      -99.90      -99.90      -99.90      -99.90      -99.90    
       -99.90      -99.90      -99.90      -99.90      -99.90      -99.90      -99.90      -99.90      -99.90      -99.90    
       -99.90      -99.90      -99.90      -99.90      -99.90      -99.90      -99.90      -99.90      -99.90      -99.90    
       -99.90      -99.90      -99.90      -99.90      -99.90      -99.90      -99.90      -99.90      -99.90      -99.90    
  21   -99.90      -99.90      -99.90      -99.90      -99.90      -99.90      -99.90      -99.90      -99.90      -99.90    
       -99.90      -99.90      -99.90      -99.90      -99.90      -99.90      -99.90      -99.90      -99.90      -99.90    
       -99.90      -99.90      -99.90      -99.90      -99.90      -99.90      -99.90      -99.90      -99.90      -99.90    
       -99.90      -99.90      -99.90      -99.90      -99.90      -99.90      -99.90      -99.90      -99.90      -99.90    
  22   -99.90      -99.90      -99.90      -99.90      -99.90      -99.90      -99.90      -99.90      -99.90      -99.90    
       -99.90      -99.90      -99.90      -99.90      -99.90      -99.90      -99.90      -99.90      -99.90      -99.90    
       -99.90      -99.90      -99.90      -99.90      -99.90      -99.90      -99.90      -99.90      -99.90      -99.90    
       -99.90      -99.90      -99.90      -99.90      -99.90      -99.90      -99.90      -99.90      -99.90      -99.90    
  23   -99.90      -99.90      -99.90      -99.90      -99.90      -99.90      -99.90      -99.90      -99.90      -99.90    
       -99.90      -99.90      -99.90      -99.90      -99.90      -99.90      -99.90      -99.90      -99.90      -99.90    
       -99.90      -99.90      -99.90      -99.90      -99.90      -99.90      -99.90      -99.90      -99.90      -99.90    
       -99.90      -99.90      -99.90      -99.90      -99.90      -99.90      -99.90      -99.90      -99.90      -99.90    
  24   -99.90      -99.90      -99.90      -99.90      -99.90      -99.90      -99.90      -99.90      -99.90      -99.90    
       -99.90      -99.90      -99.90      -99.90      -99.90      -99.90      -99.90      -99.90      -99.90      -99.90    
       -99.90      -99.90      -99.90      -99.90      -99.90      -99.90      -99.90      -99.90      -99.90      -99.90    
       -99.90      -99.90      -99.90      -99.90      -99.90      -99.90      -99.90      -99.90      -99.90      -99.90    
  25   -99.90      -99.90      -99.90      -99.90      -99.90      -99.90      -99.90      -99.90      -99.90      -99.90    
       -99.90      -99.90      -99.90      -99.90      -99.90      -99.90      -99.90      -99.90      -99.90      -99.90    
       -99.90      -99.90      -99.90      -99.90      -99.90      -99.90      -99.90      -99.90      -99.90      -99.90    
       -99.90      -99.90      -99.90      -99.90      -99.90      -99.90      -99.90      -99.90      -99.90      -99.90    
  26   -99.90      -99.90      -99.90      -99.90      -99.90      -99.90      -99.90      -99.90      -99.90      -99.90    
       -99.90      -99.90      -99.90      -99.90      -99.90      -99.90      -99.90      -99.90      -99.90      -99.90    
       -99.90      -99.90      -99.90      -99.90      -99.90      -99.90      -99.90      -99.90      -99.90      -99.90    
       -99.90      -99.90      -99.90      -99.90      -99.90      -99.90      -99.90      -99.90      -99.90      -99.90    
  27   -99.90      -99.90      -99.90      -99.90      -99.90      -99.90      -99.90      -99.90      -99.90      -99.90    
       -99.90      -99.90      -99.90      -99.90      -99.90      -99.90      -99.90      -99.90      -99.90      -99.90    
       -99.90      -99.90      -99.90      -99.90      -99.90      -99.90      -99.90      -99.90      -99.90      -99.90    
       -99.90      -99.90      -99.90      -99.90      -99.90      -99.90      -99.90      -99.90      -99.90      -99.90    
  28   -99.90      -99.90      -99.90      -99.90      -99.90      -99.90      -99.90      -99.90      -99.90      -99.90    
       -99.90      -99.90      -99.90      -99.90      -99.90      -99.90      -99.90      -99.90      -99.90      -99.90    
       -99.90      -99.90      -99.90      -99.90      -99.90      -99.90      -99.90      -99.90      -99.90      -99.90    
       -99.90      -99.90      -99.90      -99.90      -99.90      -99.90      -99.90      -99.90      -99.90      -99.90    
  29   -99.90      -99.90      -99.90      -99.90      -99.90      -99.90      -99.90      -99.90      -99.90      -99.90    
       -99.90      -99.90      -99.90      -99.90      -99.90      -99.90      -99.90      -99.90      -99.90      -99.90    
       -99.90      -99.90      -99.90      -99.90      -99.90      -99.90      -99.90      -99.90      -99.90      -99.90    
       -99.90      -99.90      -99.90      -99.90      -99.90      -99.90      -99.90      -99.90      -99.90      -99.90    
  30   -99.90      -99.90      -99.90      -99.90      -99.90      -99.90      -99.90      -99.90      -99.90      -99.90    
       -99.90      -99.90      -99.90      -99.90      -99.90      -99.90      -99.90      -99.90      -99.90      -99.90    
       -99.90      -99.90      -99.90      -99.90      -99.90      -99.90      -99.90      -99.90      -99.90      -99.90    
       -99.90      -99.90      -99.90      -99.90      -99.90      -99.90      -99.90      -99.90      -99.90      -99.90    
  31   -99.90      -99.90      -99.90      -99.90      -99.90      -99.90      -99.90      -99.90      -99.90      -99.90    
       -99.90      -99.90      -99.90      -99.90      -99.90      -99.90      -99.90      -99.90      -99.90      -99.90    
       -99.90      -99.90      -99.90      -99.90      -99.90      -99.90      -99.90      -99.90      -99.90      -99.90    
       -99.90      -99.90      -99.90      -99.90      -99.90      -99.90      -99.90      -99.90      -99.90      -99.90    
  32   -99.90      -99.90      -99.90      -99.90      -99.90      -99.90      -99.90      -99.90      -99.90      -99.90    
       -99.90      -99.90      -99.90      -99.90      -99.90      -99.90      -99.90      -99.90      -99.90      -99.90    
       -99.90      -99.90      -99.90      -99.90      -99.90      -99.90      -99.90      -99.90      -99.90      -99.90    
       -99.90      -99.90      -99.90      -99.90      -99.90      -99.90      -99.90      -99.90      -99.90      -99.90    
  33   -99.90      -99.90      -99.90      -99.90      -99.90      -99.90      -99.90      -99.90      -99.90      -99.90    
       -99.90      -99.90      -99.90      -99.90      -99.90      -99.90      -99.90      -99.90      -99.90      -99.90    
       -99.90      -99.90      -99.90      -99.90      -99.90      -99.90      -99.90      -99.90      -99.90      -99.90    
       -99.90      -99.90      -99.90      -99.90      -99.90      -99.90      -99.90      -99.90      -99.90      -99.90    
  34   -99.90      -99.90      -99.90      -99.90      -99.90      -99.90      -99.90      -99.90      -99.90      -99.90    
       -99.90      -99.90      -99.90      -99.90      -99.90      -99.90      -99.90      -99.90      -99.90      -99.90    
       -99.90      -99.90      -99.90      -99.90      -99.90      -99.90      -99.90      -99.90      -99.90      -99.90    
       -99.90      -99.90      -99.90      -99.90      -99.90      -99.90      -99.90      -99.90      -99.90      -99.90    
  35   -99.90      -99.90      -99.90      -99.90      -99.90      -99.90      -99.90      -99.90      -99.90      -99.90    
       -99.90      -99.90      -99.90      -99.90      -99.90      -99.90      -99.90      -99.90      -99.90      -99.90    
       -99.90      -99.90      -99.90      -99.90      -99.90      -99.90      -99.90      -99.90      -99.90      -99.90    
       -99.90      -99.90      -99.90      -99.90      -99.90      -99.90      -99.90      -99.90      -99.90      -99.90    
  36   -99.90      -99.90      -99.90      -99.90      -99.90      -99.90      -99.90      -99.90      -99.90      -99.90    
       -99.90      -99.90      -99.90      -99.90      -99.90      -99.90      -99.90      -99.90      -99.90      -99.90    
       -99.90      -99.90      -99.90      -99.90      -99.90      -99.90      -99.90      -99.90      -99.90      -99.90    
       -99.90      -99.90      -99.90      -99.90      -99.90      -99.90      -99.90      -99.90      -99.90      -99.90    
  37   -99.90      -99.90      -99.90      -99.90      -99.90      -99.90      -99.90      -99.90      -99.90      -99.90    
       -99.90      -99.90      -99.90      -99.90      -99.90      -99.90      -99.90      -99.90      -99.90      -99.90    
       -99.90      -99.90      -99.90      -99.90      -99.90      -99.90      -99.90      -99.90      -99.90      -99.90    
       -99.90      -99.90      -99.90      -99.90      -99.90      -99.90      -99.90      -99.90      -99.90      -99.90    
  38   -99.90      -99.90      -99.90      -99.90      -99.90      -99.90      -99.90      -99.90      -99.90      -99.90    
       -99.90      -99.90      -99.90      -99.90      -99.90      -99.90      -99.90      -99.90      -99.90      -99.90    
       -99.90      -99.90      -99.90      -99.90      -99.90      -99.90      -99.90      -99.90      -99.90      -99.90    
       -99.90      -99.90      -99.90      -99.90      -99.90      -99.90      -99.90      -99.90      -99.90      -99.90    
  39   -99.90      -99.90      -99.90      -99.90      -99.90      -99.90      -99.90      -99.90      -99.90      -99.90    
       -99.90      -99.90      -99.90      -99.90      -99.90      -99.90      -99.90      -99.90      -99.90      -99.90    
       -99.90      -99.90      -99.90      -99.90      -99.90      -99.90      -99.90      -99.90      -99.90      -99.90    
       -99.90      -99.90      -99.90      -99.90      -99.90      -99.90      -99.90      -99.90      -99.90      -99.90    
  40   -99.90      -99.90      -99.90      -99.90      -99.90      -99.90      -99.90      -99.90      -99.90      -99.90    
       -99.90      -99.90      -99.90      -99.90      -99.90      -99.90      -99.90      -99.90      -99.90      -99.90    
       -99.90      -99.90      -99.90      -99.90      -99.90      -99.90      -99.90      -99.90      -99.90      -99.90    
       -99.90      -99.90      -99.90      -99.90      -99.90      -99.90      -99.90      -99.90      -99.90      -99.90    
1
              HEAD IN LAYER 2 AT END OF TIME STEP 2 IN STRESS PERIOD 3
  ---------------------------------------------------------------------------

            1           2           3           4           5           6           7           8           9          10
           11          12          13          14          15          16          17          18          19          20
           21          22          23          24          25          26          27          28          29          30
           31          32          33          34          35          36          37          38          39          40
 ........................................................................................................................
   1   -99.90      -99.90      -99.90      -99.90      -99.90      -99.90      -99.90      -99.90      -99.90      -99.90    
       -99.90      -99.90      -99.90      -99.90      -99.90      -99.90      -99.90      -99.90      -99.90      -99.90    
       -99.90      -99.90      -99.90      -99.90      -99.90      -99.90      -99.90      -99.90      -99.90      -99.90    
       -99.90      -99.90      -99.90      -99.90      -99.90      -99.90      -99.90      -99.90      -99.90      -99.90    
   2   -99.90      -99.90      -99.90      -99.90      -99.90      -99.90      -99.90      -99.90      -99.90      -99.90    
       -99.90      -99.90      -99.90      -99.90      -99.90      -99.90      -99.90      -99.90      -99.90      -99.90    
       -99.90      -99.90      -99.90      -99.90      -99.90      -99.90      -99.90      -99.90      -99.90      -99.90    
       -99.90      -99.90      -99.90      -99.90      -99.90      -99.90      -99.90      -99.90      -99.90      -99.90    
   3   -99.90      -99.90      -99.90      -99.90      -99.90      -99.90      -99.90      -99.90      -99.90      -99.90    
       -99.90      -99.90      -99.90      -99.90      -99.90      -99.90      -99.90      -99.90      -99.90      -99.90    
       -99.90      -99.90      -99.90      -99.90      -99.90      -99.90      -99.90      -99.90      -99.90      -99.90    
       -99.90      -99.90      -99.90      -99.90      -99.90      -99.90      -99.90      -99.90      -99.90      -99.90    
   4   -99.90      -99.90      -99.90      -99.90      -99.90      -99.90      -99.90      -99.90      -99.90      -99.90    
       -99.90      -99.90      -99.90      -99.90      -99.90      -99.90      -99.90      -99.90      -99.90      -99.90    
       -99.90      -99.90      -99.90      -99.90      -99.90      -99.90      -99.90      -99.90      -99.90      -99.90    
       -99.90      -99.90      -99.90      -99.90      -99.90      -99.90      -99.90      -99.90      -99.90      -99.90    
   5   -99.90      -99.90      -99.90      -99.90      -99.90      -99.90      -99.90      -99.90      -99.90      -99.90    
       -99.90      -99.90      -99.90      -99.90      -99.90      -99.90      -99.90      -99.90      -99.90      -99.90    
       -99.90      -99.90      -99.90      -99.90      -99.90      -99.90      -99.90      -99.90      -99.90      -99.90    
       -99.90      -99.90      -99.90      -99.90      -99.90      -99.90      -99.90      -99.90      -99.90      -99.90    
   6   -99.90      -99.90      -99.90      -99.90      -99.90      -99.90      -99.90      -99.90      -99.90      -99.90    
       -99.90      -99.90      -99.90      -99.90      -99.90      -99.90      -99.90      -99.90      -99.90      -99.90    
       -99.90      -99.90      -99.90      -99.90      -99.90      -99.90      -99.90      -99.90      -99.90      -99.90    
       -99.90      -99.90      -99.90      -99.90      -99.90      -99.90      -99.90      -99.90      -99.90      -99.90    
   7   -99.90      -99.90      -99.90      -99.90      -99.90      -99.90      -99.90      -99.90      -99.90      -99.90    
       -99.90      -99.90      -99.90      -99.90      -99.90      -99.90      -99.90      -99.90      -99.90      -99.90    
       -99.90      -99.90      -99.90      -99.90      -99.90      -99.90      -99.90      -99.90      -99.90      -99.90    
       -99.90      -99.90      -99.90      -99.90      -99.90      -99.90      -99.90      -99.90      -99.90      -99.90    
   8   -99.90      -99.90      -99.90      -99.90      -99.90      -99.90      -99.90      -99.90      -99.90      -99.90    
       -99.90      -99.90      -99.90      -99.90      -99.90      -99.90      -99.90      -99.90      -99.90      -99.90    
       -99.90      -99.90      -99.90      -99.90      -99.90      -99.90      -99.90      -99.90      -99.90      -99.90    
       -99.90      -99.90      -99.90      -99.90      -99.90      -99.90      -99.90      -99.90      -99.90      -99.90    
   9   -99.90      -99.90      -99.90      -99.90      -99.90      -99.90      -99.90      -99.90      -99.90      -99.90    
       -99.90      -99.90      -99.90      -99.90      -99.90      -99.90      -99.90      -99.90      -99.90      -99.90    
       -99.90      -99.90      -99.90      -99.90      -99.90      -99.90      -99.90      -99.90      -99.90      -99.90    
       -99.90      -99.90      -99.90      -99.90      -99.90      -99.90      -99.90      -99.90      -99.90      -99.90    
  10   -99.90      -99.90      -99.90      -99.90      -99.90      -99.90      -99.90      -99.90      -99.90      -99.90    
       -99.90      -99.90      -99.90      -99.90      -99.90      -99.90      -99.90      -99.90      -99.90      -99.90    
       -99.90      -99.90      -99.90      -99.90      -99.90      -99.90      -99.90      -99.90      -99.90      -99.90    
       -99.90      -99.90      -99.90      -99.90      -99.90      -99.90      -99.90      -99.90      -99.90      -99.90    
  11   -99.90      -99.90      -99.90      -99.90      -99.90      -99.90      -99.90      -99.90      -99.90      -99.90    
       -99.90      -99.90      -99.90      -99.90      -99.90      -99.90      -99.90      -99.90      -99.90      -99.90    
       -99.90      -99.90      -99.90      -99.90      -99.90      -99.90      -99.90      -99.90      -99.90      -99.90    
       -99.90      -99.90      -99.90      -99.90      -99.90      -99.90      -99.90      -99.90      -99.90      -99.90    
  12   -99.90      -99.90      -99.90      -99.90      -99.90      -99.90      -99.90      -99.90      -99.90      -99.90    
       -99.90      -99.90      -99.90      -99.90      -99.90      -99.90      -99.90      -99.90      -99.90      -99.90    
       -99.90      -99.90      -99.90      -99.90      -99.90      -99.90      -99.90      -99.90      -99.90      -99.90    
       -99.90      -99.90      -99.90      -99.90      -99.90      -99.90      -99.90      -99.90      -99.90      -99.90    
  13   -99.90      -99.90      -99.90      -99.90      -99.90      -99.90      -99.90      -99.90      -99.90      -99.90    
       -99.90      -99.90      -99.90      -99.90      -99.90      -99.90      -99.90      -99.90      -99.90      -99.90    
       -99.90      -99.90      -99.90      -99.90      -99.90      -99.90      -99.90      -99.90      -99.90      -99.90    
       -99.90      -99.90      -99.90      -99.90      -99.90      -99.90      -99.90      -99.90      -99.90      -99.90    
  14   -99.90      -99.90      -99.90      -99.90      -99.90      -99.90      -99.90      -99.90      -99.90      -99.90    
       -99.90      -99.90      -99.90      -99.90      -99.90      -99.90      -99.90      -99.90      -99.90      -99.90    
       -99.90      -99.90      -99.90      -99.90      -99.90      -99.90      -99.90      -99.90      -99.90      -99.90    
       -99.90      -99.90      -99.90      -99.90      -99.90      -99.90      -99.90      -99.90      -99.90      -99.90    
  15   -99.90      -99.90      -99.90      -99.90      -99.90      -99.90      -99.90      -99.90      -99.90      -99.90    
       -99.90      -99.90      -99.90      -99.90      -99.90      -99.90      -99.90      -99.90      -99.90      -99.90    
       -99.90      -99.90      -99.90      -99.90      -99.90      -99.90      -99.90      -99.90      -99.90      -99.90    
       -99.90      -99.90      -99.90      -99.90      -99.90      -99.90      -99.90      -99.90      -99.90      -99.90    
  16   -99.90      -99.90      -99.90      -99.90      -99.90      -99.90      -99.90      -99.90      -99.90      -99.90    
       -99.90      -99.90      -99.90      -99.90      -99.90      -99.90      -99.90      -99.90      -99.90      -99.90    
       -99.90      -99.90      -99.90      -99.90      -99.90      -99.90      -99.90      -99.90      -99.90      -99.90    
       -99.90      -99.90      -99.90      -99.90      -99.90      -99.90      -99.90      -99.90      -99.90      -99.90    
  17   -99.90      -99.90      -99.90      -99.90      -99.90      -99.90      -99.90      -99.90      -99.90      -99.90    
       -99.90      -99.90      -99.90      -99.90      -99.90      -99.90      -99.90      -99.90      -99.90      -99.90    
       -99.90      -99.90      -99.90      -99.90      -99.90      -99.90      -99.90      -99.90      -99.90      -99.90    
       -99.90      -99.90      -99.90      -99.90      -99.90      -99.90      -99.90      -99.90      -99.90      -99.90    
  18   -99.90      -99.90      -99.90      -99.90      -99.90      -99.90      -99.90      -99.90      -99.90      -99.90    
       -99.90      -99.90      -99.90      -99.90      -99.90      -99.90      -99.90      -99.90      -99.90      -99.90    
       -99.90      -99.90      -99.90      -99.90      -99.90      -99.90      -99.90      -99.90      -99.90      -99.90    
       -99.90      -99.90      -99.90      -99.90      -99.90      -99.90      -99.90      -99.90      -99.90      -99.90    
  19   -99.90      -99.90      -99.90      -99.90      -99.90      -99.90      -99.90      -99.90      -99.90      -99.90    
       -99.90      -99.90      -99.90      -99.90      -99.90      -99.90      -99.90      -99.90      -99.90      -99.90    
       -99.90      -99.90      -99.90      -99.90      -99.90      -99.90      -99.90      -99.90      -99.90      -99.90    
       -99.90      -99.90      -99.90      -99.90      -99.90      -99.90      -99.90      -99.90      -99.90      -99.90    
  20   -99.90      -99.90      -99.90      -99.90      -99.90      -99.90      -99.90      -99.90      -99.90      -99.90    
       -99.90      -99.90      -99.90      -99.90      -99.90      -99.90      -99.90      -99.90      -99.90      -99.90    
       -99.90      -99.90      -99.90      -99.90      -99.90      -99.90      -99.90      -99.90      -99.90      -99.90    
       -99.90      -99.90      -99.90      -99.90      -99.90      -99.90      -99.90      -99.90      -99.90      -99.90    
  21   -99.90      -99.90      -99.90      -99.90      -99.90      -99.90      -99.90      -99.90      -99.90      -99.90    
       -99.90      -99.90      -99.90      -99.90      -99.90      -99.90      -99.90      -99.90      -99.90      -99.90    
       -99.90      -99.90      -99.90      -99.90      -99.90      -99.90      -99.90      -99.90      -99.90      -99.90    
       -99.90      -99.90      -99.90      -99.90      -99.90      -99.90      -99.90      -99.90      -99.90      -99.90    
  22   -99.90      -99.90      -99.90      -99.90      -99.90      -99.90      -99.90      -99.90      -99.90      -99.90    
       -99.90      -99.90      -99.90      -99.90      -99.90      -99.90      -99.90      -99.90      -99.90      -99.90    
       -99.90      -99.90      -99.90      -99.90      -99.90      -99.90      -99.90      -99.90      -99.90      -99.90    
       -99.90      -99.90      -99.90      -99.90      -99.90      -99.90      -99.90      -99.90      -99.90      -99.90    
  23   -99.90      -99.90      -99.90      -99.90      -99.90      -99.90      -99.90      -99.90      -99.90      -99.90    
       -99.90      -99.90      -99.90      -99.90      -99.90      -99.90      -99.90      -99.90      -99.90      -99.90    
       -99.90      -99.90      -99.90      -99.90      -99.90      -99.90      -99.90      -99.90      -99.90      -99.90    
       -99.90      -99.90      -99.90      -99.90      -99.90      -99.90      -99.90      -99.90      -99.90      -99.90    
  24   -99.90      -99.90      -99.90      -99.90      -99.90      -99.90      -99.90      -99.90      -99.90      -99.90    
       -99.90      -99.90      -99.90      -99.90      -99.90      -99.90      -99.90      -99.90      -99.90      -99.90    
       -99.90      -99.90      -99.90      -99.90      -99.90      -99.90      -99.90      -99.90      -99.90      -99.90    
       -99.90      -99.90      -99.90      -99.90      -99.90      -99.90      -99.90      -99.90      -99.90      -99.90    
  25   -99.90      -99.90      -99.90      -99.90      -99.90      -99.90      -99.90      -99.90      -99.90      -99.90    
       -99.90      -99.90      -99.90      -99.90      -99.90      -99.90      -99.90      -99.90      -99.90      -99.90    
       -99.90      -99.90      -99.90      -99.90      -99.90      -99.90      -99.90      -99.90      -99.90      -99.90    
       -99.90      -99.90      -99.90      -99.90      -99.90      -99.90      -99.90      -99.90      -99.90      -99.90    
  26   -99.90      -99.90      -99.90      -99.90      -99.90      -99.90      -99.90      -99.90      -99.90      -99.90    
       -99.90      -99.90      -99.90      -99.90      -99.90      -99.90      -99.90      -99.90      -99.90      -99.90    
       -99.90      -99.90      -99.90      -99.90      -99.90      -99.90      -99.90      -99.90      -99.90      -99.90    
       -99.90      -99.90      -99.90      -99.90      -99.90      -99.90      -99.90      -99.90      -99.90      -99.90    
  27   -99.90      -99.90      -99.90      -99.90      -99.90      -99.90      -99.90      -99.90      -99.90      -99.90    
       -99.90      -99.90      -99.90      -99.90      -99.90      -99.90      -99.90      -99.90      -99.90      -99.90    
       -99.90      -99.90      -99.90      -99.90      -99.90      -99.90      -99.90      -99.90      -99.90      -99.90    
       -99.90      -99.90      -99.90      -99.90      -99.90      -99.90      -99.90      -99.90      -99.90      -99.90    
  28   -99.90      -99.90      -99.90      -99.90      -99.90      -99.90      -99.90      -99.90      -99.90      -99.90    
       -99.90      -99.90      -99.90      -99.90      -99.90      -99.90      -99.90      -99.90      -99.90      -99.90    
       -99.90      -99.90      -99.90      -99.90      -99.90      -99.90      -99.90      -99.90      -99.90      -99.90    
       -99.90      -99.90      -99.90      -99.90      -99.90      -99.90      -99.90      -99.90      -99.90      -99.90    
  29   -99.90      -99.90      -99.90      -99.90      -99.90      -99.90      -99.90      -99.90      -99.90      -99.90    
       -99.90      -99.90      -99.90      -99.90      -99.90      -99.90      -99.90      -99.90      -99.90      -99.90    
       -99.90      -99.90      -99.90      -99.90      -99.90      -99.90      -99.90      -99.90      -99.90      -99.90    
       -99.90      -99.90      -99.90      -99.90      -99.90      -99.90      -99.90      -99.90      -99.90      -99.90    
  30   -99.90      -99.90      -99.90      -99.90      -99.90      -99.90      -99.90      -99.90      -99.90      -99.90    
       -99.90      -99.90      -99.90      -99.90      -99.90      -99.90      -99.90      -99.90      -99.90      -99.90    
       -99.90      -99.90      -99.90      -99.90      -99.90      -99.90      -99.90      -99.90      -99.90      -99.90    
       -99.90      -99.90      -99.90      -99.90      -99.90      -99.90      -99.90      -99.90      -99.90      -99.90    
  31   -99.90      -99.90      -99.90      -99.90      -99.90      -99.90      -99.90      -99.90      -99.90      -99.90    
       -99.90      -99.90      -99.90      -99.90      -99.90      -99.90      -99.90      -99.90      -99.90      -99.90    
       -99.90      -99.90      -99.90      -99.90      -99.90      -99.90      -99.90      -99.90      -99.90      -99.90    
       -99.90      -99.90      -99.90      -99.90      -99.90      -99.90      -99.90      -99.90      -99.90      -99.90    
  32   -99.90      -99.90      -99.90      -99.90      -99.90      -99.90      -99.90      -99.90      -99.90      -99.90    
       -99.90      -99.90      -99.90      -99.90      -99.90      -99.90      -99.90      -99.90      -99.90      -99.90    
       -99.90      -99.90      -99.90      -99.90      -99.90      -99.90      -99.90      -99.90      -99.90      -99.90    
       -99.90      -99.90      -99.90      -99.90      -99.90      -99.90      -99.90      -99.90      -99.90      -99.90    
  33   -99.90      -99.90      -99.90      -99.90      -99.90      -99.90      -99.90      -99.90      -99.90      -99.90    
       -99.90      -99.90      -99.90      -99.90      -99.90      -99.90      -99.90      -99.90      -99.90      -99.90    
       -99.90      -99.90      -99.90      -99.90      -99.90      -99.90      -99.90      -99.90      -99.90      -99.90    
       -99.90      -99.90      -99.90      -99.90      -99.90      -99.90      -99.90      -99.90      -99.90      -99.90    
  34   -99.90      -99.90      -99.90      -99.90      -99.90      -99.90      -99.90      -99.90      -99.90      -99.90    
       -99.90      -99.90      -99.90      -99.90      -99.90      -99.90      -99.90      -99.90      -99.90      -99.90    
       -99.90      -99.90      -99.90      -99.90      -99.90      -99.90      -99.90      -99.90      -99.90      -99.90    
       -99.90      -99.90      -99.90      -99.90      -99.90      -99.90      -99.90      -99.90      -99.90      -99.90    
  35   -99.90      -99.90      -99.90      -99.90      -99.90      -99.90      -99.90      -99.90      -99.90      -99.90    
       -99.90      -99.90      -99.90      -99.90      -99.90      -99.90      -99.90      -99.90      -99.90      -99.90    
       -99.90      -99.90      -99.90      -99.90      -99.90      -99.90      -99.90      -99.90      -99.90      -99.90    
       -99.90      -99.90      -99.90      -99.90      -99.90      -99.90      -99.90      -99.90      -99.90      -99.90    
  36   -99.90      -99.90      -99.90      -99.90      -99.90      -99.90      -99.90      -99.90      -99.90      -99.90    
       -99.90      -99.90      -99.90      -99.90      -99.90      -99.90      -99.90      -99.90      -99.90      -99.90    
       -99.90      -99.90      -99.90      -99.90      -99.90      -99.90      -99.90      -99.90      -99.90      -99.90    
       -99.90      -99.90      -99.90      -99.90      -99.90      -99.90      -99.90      -99.90      -99.90      -99.90    
  37   -99.90      -99.90      -99.90      -99.90      -99.90      -99.90      -99.90      -99.90      -99.90      -99.90    
       -99.90      -99.90      -99.90      -99.90      -99.90      -99.90      -99.90      -99.90      -99.90      -99.90    
       -99.90      -99.90      -99.90      -99.90      -99.90      -99.90      -99.90      -99.90      -99.90      -99.90    
       -99.90      -99.90      -99.90      -99.90      -99.90      -99.90      -99.90      -99.90      -99.90      -99.90    
  38   -99.90      -99.90      -99.90      -99.90      -99.90      -99.90      -99.90      -99.90      -99.90      -99.90    
       -99.90      -99.90      -99.90      -99.90      -99.90      -99.90      -99.90      -99.90      -99.90      -99.90    
       -99.90      -99.90      -99.90      -99.90      -99.90      -99.90      -99.90      -99.90      -99.90      -99.90    
       -99.90      -99.90      -99.90      -99.90      -99.90      -99.90      -99.90      -99.90      -99.90      -99.90    
  39   -99.90      -99.90      -99.90      -99.90      -99.90      -99.90      -99.90      -99.90      -99.90      -99.90    
       -99.90      -99.90      -99.90      -99.90      -99.90      -99.90      -99.90      -99.90      -99.90      -99.90    
       -99.90      -99.90      -99.90      -99.90      -99.90      -99.90      -99.90      -99.90      -99.90      -99.90    
       -99.90      -99.90      -99.90      -99.90      -99.90      -99.90      -99.90      -99.90      -99.90      -99.90    
  40   -99.90      -99.90      -99.90      -99.90      -99.90      -99.90      -99.90      -99.90      -99.90      -99.90    
       -99.90      -99.90      -99.90      -99.90      -99.90      -99.90      -99.90      -99.90      -99.90      -99.90    
       -99.90      -99.90      -99.90      -99.90      -99.90      -99.90      -99.90      -99.90      -99.90      -99.90    
       -99.90      -99.90      -99.90      -99.90      -99.90      -99.90      -99.90      -99.90      -99.90      -99.90    
1
              HEAD IN LAYER 3 AT END OF TIME STEP 2 IN STRESS PERIOD 3
  ---------------------------------------------------------------------------

            1           2           3           4           5           6           7           8           9          10
           11          12          13          14          15          16          17          18          19          20
           21          22          23          24          25          26          27          28          29          30
           31          32          33          34          35          36          37          38          39          40
 ........................................................................................................................
   1   -99.90      -99.90      -99.90      -99.90      -99.90      -99.90      -99.90      -99.90      -99.90      -99.90    
       -99.90      -99.90      -99.90      -99.90      -99.90      -99.90      -99.90      -99.90      -99.90      -99.90    
       -99.90      -99.90      -99.90      -99.90      -99.90      -99.90      -99.90      -99.90      -99.90      -99.90    
       -99.90      -99.90      -99.90      -99.90      -99.90      -99.90      -99.90      -99.90      -99.90      -99.90    
   2   -99.90      -99.90      -99.90      -99.90      -99.90      -99.90      -99.90      -99.90      -99.90      -99.90    
       -99.90      -99.90      -99.90      -99.90      -99.90      -99.90      -99.90      -99.90      -99.90      -99.90    
       -99.90      -99.90      -99.90      -99.90      -99.90      -99.90      -99.90      -99.90      -99.90      -99.90    
       -99.90      -99.90      -99.90      -99.90      -99.90      -99.90      -99.90      -99.90      -99.90      -99.90    
   3   -99.90      -99.90      -99.90      -99.90      -99.90      -99.90      -99.90      -99.90      -99.90      -99.90    
       -99.90      -99.90      -99.90      -99.90      -99.90      -99.90      -99.90      -99.90      -99.90      -99.90    
       -99.90      -99.90      -99.90      -99.90      -99.90      -99.90      -99.90      -99.90      -99.90      -99.90    
       -99.90      -99.90      -99.90      -99.90      -99.90      -99.90      -99.90      -99.90      -99.90      -99.90    
   4   -99.90      -99.90      -99.90      -99.90      -99.90      -99.90      -99.90      -99.90      -99.90      -99.90    
       -99.90      -99.90      -99.90      -99.90      -99.90      -99.90      -99.90      -99.90      -99.90      -99.90    
       -99.90      -99.90      -99.90      -99.90      -99.90      -99.90      -99.90      -99.90      -99.90      -99.90    
       -99.90      -99.90      -99.90      -99.90      -99.90      -99.90      -99.90      -99.90      -99.90      -99.90    
   5   -99.90      -99.90      -99.90      -99.90      -99.90      -99.90      -99.90      -99.90      -99.90      -99.90    
       -99.90      -99.90      -99.90      -99.90      -99.90      -99.90      -99.90      -99.90      -99.90      -99.90    
       -99.90      -99.90      -99.90      -99.90      -99.90      -99.90      -99.90      -99.90      -99.90      -99.90    
       -99.90      -99.90      -99.90      -99.90      -99.90      -99.90      -99.90      -99.90      -99.90      -99.90    
   6   -99.90      -99.90      -99.90      -99.90      -99.90      -99.90      -99.90      -99.90      -99.90      -99.90    
       -99.90      -99.90      -99.90      -99.90      -99.90      -99.90      -99.90      -99.90      -99.90      -99.90    
       -99.90      -99.90      -99.90      -99.90      -99.90      -99.90      -99.90      -99.90      -99.90      -99.90    
       -99.90      -99.90      -99.90      -99.90      -99.90      -99.90      -99.90      -99.90      -99.90      -99.90    
   7   -99.90      -99.90      -99.90      -99.90      -99.90      -99.90      -99.90      -99.90      -99.90      -99.90    
       -99.90      -99.90      -99.90      -99.90      -99.90      -99.90      -99.90      -99.90      -99.90      -99.90    
       -99.90      -99.90      -99.90      -99.90      -99.90      -99.90      -99.90      -99.90      -99.90      -99.90    
       -99.90      -99.90      -99.90      -99.90      -99.90      -99.90      -99.90      -99.90      -99.90      -99.90    
   8   -99.90      -99.90      -99.90      -99.90      -99.90      -99.90      -99.90      -99.90      -99.90      -99.90    
       -99.90      -99.90      -99.90      -99.90      -99.90      -99.90      -99.90      -99.90      -99.90      -99.90    
       -99.90      -99.90      -99.90      -99.90      -99.90      -99.90      -99.90      -99.90      -99.90      -99.90    
       -99.90      -99.90      -99.90      -99.90      -99.90      -99.90      -99.90      -99.90      -99.90      -99.90    
   9   -99.90      -99.90      -99.90      -99.90      -99.90      -99.90      -99.90      -99.90      -99.90      -99.90    
       -99.90      -99.90      -99.90      -99.90      -99.90      -99.90      -99.90      -99.90      -99.90      -99.90    
       -99.90      -99.90      -99.90      -99.90      -99.90      -99.90      -99.90      -99.90      -99.90      -99.90    
       -99.90      -99.90      -99.90      -99.90      -99.90      -99.90      -99.90      -99.90      -99.90      -99.90    
  10   -99.90      -99.90      -99.90      -99.90      -99.90      -99.90      -99.90      -99.90      -99.90      -99.90    
       -99.90      -99.90      -99.90      -99.90      -99.90      -99.90      -99.90      -99.90      -99.90      -99.90    
       -99.90      -99.90      -99.90      -99.90      -99.90      -99.90      -99.90      -99.90      -99.90      -99.90    
       -99.90      -99.90      -99.90      -99.90      -99.90      -99.90      -99.90      -99.90      -99.90      -99.90    
  11   -99.90      -99.90      -99.90      -99.90      -99.90      -99.90      -99.90      -99.90      -99.90      -99.90    
       -99.90      -99.90      -99.90      -99.90      -99.90      -99.90      -99.90      -99.90      -99.90      -99.90    
       -99.90      -99.90      -99.90      -99.90      -99.90      -99.90      -99.90      -99.90      -99.90      -99.90    
       -99.90      -99.90      -99.90      -99.90      -99.90      -99.90      -99.90      -99.90      -99.90      -99.90    
  12   -99.90      -99.90      -99.90      -99.90      -99.90      -99.90      -99.90      -99.90      -99.90      -99.90    
       -99.90      -99.90      -99.90      -99.90      -99.90      -99.90      -99.90      -99.90      -99.90      -99.90    
       -99.90      -99.90      -99.90      -99.90      -99.90      -99.90      -99.90      -99.90      -99.90      -99.90    
       -99.90      -99.90      -99.90      -99.90      -99.90      -99.90      -99.90      -99.90      -99.90      -99.90    
  13   -99.90      -99.90      -99.90      -99.90      -99.90      -99.90      -99.90      -99.90      -99.90      -99.90    
       -99.90      -99.90      -99.90      -99.90      -99.90      -99.90      -99.90      -99.90      -99.90      -99.90    
       -99.90      -99.90      -99.90      -99.90      -99.90      -99.90      -99.90      -99.90      -99.90      -99.90    
       -99.90      -99.90      -99.90      -99.90      -99.90      -99.90      -99.90      -99.90      -99.90      -99.90    
  14   -99.90      -99.90      -99.90      -99.90      -99.90      -99.90      -99.90      -99.90      -99.90      -99.90    
       -99.90      -99.90      -99.90      -99.90      -99.90      -99.90      -99.90      -99.90      -99.90      -99.90    
       -99.90      -99.90      -99.90      -99.90      -99.90      -99.90      -99.90      -99.90      -99.90      -99.90    
       -99.90      -99.90      -99.90      -99.90      -99.90      -99.90      -99.90      -99.90      -99.90      -99.90    
  15   -99.90      -99.90      -99.90      -99.90      -99.90      -99.90      -99.90      -99.90      -99.90      -99.90    
       -99.90      -99.90      -99.90      -99.90      -99.90      -99.90      -99.90      -99.90      -99.90      -99.90    
       -99.90      -99.90      -99.90      -99.90      -99.90      -99.90      -99.90      -99.90      -99.90      -99.90    
       -99.90      -99.90      -99.90      -99.90      -99.90      -99.90      -99.90      -99.90      -99.90      -99.90    
  16   -99.90      -99.90      -99.90      -99.90      -99.90      -99.90      -99.90      -99.90      -99.90      -99.90    
       -99.90      -99.90      -99.90      -99.90      -99.90      -99.90      -99.90      -99.90      -99.90      -99.90    
       -99.90      -99.90      -99.90      -99.90      -99.90      -99.90      -99.90      -99.90      -99.90      -99.90    
       -99.90      -99.90      -99.90      -99.90      -99.90      -99.90      -99.90      -99.90      -99.90      -99.90    
  17   -99.90      -99.90      -99.90      -99.90      -99.90      -99.90      -99.90      -99.90      -99.90      -99.90    
       -99.90      -99.90      -99.90      -99.90      -99.90      -99.90      -99.90      -99.90      -99.90      -99.90    
       -99.90      -99.90      -99.90      -99.90      -99.90      -99.90      -99.90      -99.90      -99.90      -99.90    
       -99.90      -99.90      -99.90      -99.90      -99.90      -99.90      -99.90      -99.90      -99.90      -99.90    
  18   -99.90      -99.90      -99.90      -99.90      -99.90      -99.90      -99.90      -99.90      -99.90      -99.90    
       -99.90      -99.90      -99.90      -99.90      -99.90      -99.90      -99.90      -99.90      -99.90      -99.90    
       -99.90      -99.90      -99.90      -99.90      -99.90      -99.90      -99.90      -99.90      -99.90      -99.90    
       -99.90      -99.90      -99.90      -99.90      -99.90      -99.90      -99.90      -99.90      -99.90      -99.90    
  19   -99.90      -99.90      -99.90      -99.90      -99.90      -99.90      -99.90      -99.90      -99.90      -99.90    
       -99.90      -99.90      -99.90      -99.90      -99.90      -99.90      -99.90      -99.90      -99.90      -99.90    
       -99.90      -99.90      -99.90      -99.90      -99.90      -99.90      -99.90      -99.90      -99.90      -99.90    
       -99.90      -99.90      -99.90      -99.90      -99.90      -99.90      -99.90      -99.90      -99.90      -99.90    
  20   -99.90      -99.90      -99.90      -99.90      -99.90      -99.90      -99.90      -99.90      -99.90      -99.90    
       -99.90      -99.90      -99.90      -99.90      -99.90      -99.90      -99.90      -99.90      -99.90      -99.90    
       -99.90      -99.90      -99.90      -99.90      -99.90      -99.90      -99.90      -99.90      -99.90      -99.90    
       -99.90      -99.90      -99.90      -99.90      -99.90      -99.90      -99.90      -99.90      -99.90      -99.90    
  21   -99.90      -99.90      -99.90      -99.90      -99.90      -99.90      -99.90      -99.90      -99.90      -99.90    
       -99.90      -99.90      -99.90      -99.90      -99.90      -99.90      -99.90      -99.90      -99.90      -99.90    
       -99.90      -99.90      -99.90      -99.90      -99.90      -99.90      -99.90      -99.90      -99.90      -99.90    
       -99.90      -99.90      -99.90      -99.90      -99.90      -99.90      -99.90      -99.90      -99.90      -99.90    
  22   -99.90      -99.90      -99.90      -99.90      -99.90      -99.90      -99.90      -99.90      -99.90      -99.90    
       -99.90      -99.90      -99.90      -99.90      -99.90      -99.90      -99.90      -99.90      -99.90      -99.90    
       -99.90      -99.90      -99.90      -99.90      -99.90      -99.90      -99.90      -99.90      -99.90      -99.90    
       -99.90      -99.90      -99.90      -99.90      -99.90      -99.90      -99.90      -99.90      -99.90      -99.90    
  23   -99.90      -99.90      -99.90      -99.90      -99.90      -99.90      -99.90      -99.90      -99.90      -99.90    
       -99.90      -99.90      -99.90      -99.90      -99.90      -99.90      -99.90      -99.90      -99.90      -99.90    
       -99.90      -99.90      -99.90      -99.90      -99.90      -99.90      -99.90      -99.90      -99.90      -99.90    
       -99.90      -99.90      -99.90      -99.90      -99.90      -99.90      -99.90      -99.90      -99.90      -99.90    
  24   -99.90      -99.90      -99.90      -99.90      -99.90      -99.90      -99.90      -99.90      -99.90      -99.90    
       -99.90      -99.90      -99.90      -99.90      -99.90      -99.90      -99.90      -99.90      -99.90      -99.90    
       -99.90      -99.90      -99.90      -99.90      -99.90      -99.90      -99.90      -99.90      -99.90      -99.90    
       -99.90      -99.90      -99.90      -99.90      -99.90      -99.90      -99.90      -99.90      -99.90      -99.90    
  25   -99.90      -99.90      -99.90      -99.90      -99.90      -99.90      -99.90      -99.90      -99.90      -99.90    
       -99.90      -99.90      -99.90      -99.90      -99.90      -99.90      -99.90      -99.90      -99.90      -99.90    
       -99.90      -99.90      -99.90      -99.90      -99.90      -99.90      -99.90      -99.90      -99.90      -99.90    
       -99.90      -99.90      -99.90      -99.90      -99.90      -99.90      -99.90      -99.90      -99.90      -99.90    
  26   -99.90      -99.90      -99.90      -99.90      -99.90      -99.90      -99.90      -99.90      -99.90      -99.90    
       -99.90      -99.90      -99.90      -99.90      -99.90      -99.90      -99.90      -99.90      -99.90      -99.90    
       -99.90      -99.90      -99.90      -99.90      -99.90      -99.90      -99.90      -99.90      -99.90      -99.90    
       -99.90      -99.90      -99.90      -99.90      -99.90      -99.90      -99.90      -99.90      -99.90      -99.90    
  27   -99.90      -99.90      -99.90      -99.90      -99.90      -99.90      -99.90      -99.90      -99.90      -99.90    
       -99.90      -99.90      -99.90      -99.90      -99.90      -99.90      -99.90      -99.90      -99.90      -99.90    
       -99.90      -99.90      -99.90      -99.90      -99.90      -99.90      -99.90      -99.90      -99.90      -99.90    
       -99.90      -99.90      -99.90      -99.90      -99.90      -99.90      -99.90      -99.90      -99.90      -99.90    
  28   -99.90      -99.90      -99.90      -99.90      -99.90      -99.90      -99.90      -99.90      -99.90      -99.90    
       -99.90      -99.90      -99.90      -99.90      -99.90      -99.90      -99.90      -99.90      -99.90      -99.90    
       -99.90      -99.90      -99.90      -99.90      -99.90      -99.90      -99.90      -99.90      -99.90      -99.90    
       -99.90      -99.90      -99.90      -99.90      -99.90      -99.90      -99.90      -99.90      -99.90      -99.90    
  29   -99.90      -99.90      -99.90      -99.90      -99.90      -99.90      -99.90      -99.90      -99.90      -99.90    
       -99.90      -99.90      -99.90      -99.90      -99.90      -99.90      -99.90      -99.90      -99.90      -99.90    
       -99.90      -99.90      -99.90      -99.90      -99.90      -99.90      -99.90      -99.90      -99.90      -99.90    
       -99.90      -99.90      -99.90      -99.90      -99.90      -99.90      -99.90      -99.90      -99.90      -99.90    
  30   -99.90      -99.90      -99.90      -99.90      -99.90      -99.90      -99.90      -99.90      -99.90      -99.90    
       -99.90      -99.90      -99.90      -99.90      -99.90      -99.90      -99.90      -99.90      -99.90      -99.90    
       -99.90      -99.90      -99.90      -99.90      -99.90      -99.90      -99.90      -99.90      -99.90      -99.90    
       -99.90      -99.90      -99.90      -99.90      -99.90      -99.90      -99.90      -99.90      -99.90      -99.90    
  31   -99.90      -99.90      -99.90      -99.90      -99.90      -99.90      -99.90      -99.90      -99.90      -99.90    
       -99.90      -99.90      -99.90      -99.90      -99.90      -99.90      -99.90      -99.90      -99.90      -99.90    
       -99.90      -99.90      -99.90      -99.90      -99.90      -99.90      -99.90      -99.90      -99.90      -99.90    
       -99.90      -99.90      -99.90      -99.90      -99.90      -99.90      -99.90      -99.90      -99.90      -99.90    
  32   -99.90      -99.90      -99.90      -99.90      -99.90      -99.90      -99.90      -99.90      -99.90      -99.90    
       -99.90      -99.90      -99.90      -99.90      -99.90      -99.90      -99.90      -99.90      -99.90      -99.90    
       -99.90      -99.90      -99.90      -99.90      -99.90      -99.90      -99.90      -99.90      -99.90      -99.90    
       -99.90      -99.90      -99.90      -99.90      -99.90      -99.90      -99.90      -99.90      -99.90      -99.90    
  33   -99.90      -99.90      -99.90      -99.90      -99.90      -99.90      -99.90      -99.90      -99.90      -99.90    
       -99.90      -99.90      -99.90      -99.90      -99.90      -99.90      -99.90      -99.90      -99.90      -99.90    
       -99.90      -99.90      -99.90      -99.90      -99.90      -99.90      -99.90      -99.90      -99.90      -99.90    
       -99.90      -99.90      -99.90      -99.90      -99.90      -99.90      -99.90      -99.90      -99.90      -99.90    
  34   -99.90      -99.90      -99.90      -99.90      -99.90      -99.90      -99.90      -99.90      -99.90      -99.90    
       -99.90      -99.90      -99.90      -99.90      -99.90      -99.90      -99.90      -99.90      -99.90      -99.90    
       -99.90      -99.90      -99.90      -99.90      -99.90      -99.90      -99.90      -99.90      -99.90      -99.90    
       -99.90      -99.90      -99.90      -99.90      -99.90      -99.90      -99.90      -99.90      -99.90      -99.90    
  35   -99.90      -99.90      -99.90      -99.90      -99.90      -99.90      -99.90      -99.90      -99.90      -99.90    
       -99.90      -99.90      -99.90      -99.90      -99.90      -99.90      -99.90      -99.90      -99.90      -99.90    
       -99.90      -99.90      -99.90      -99.90      -99.90      -99.90      -99.90      -99.90      -99.90      -99.90    
       -99.90      -99.90      -99.90      -99.90      -99.90      -99.90      -99.90      -99.90      -99.90      -99.90    
  36   -99.90      -99.90      -99.90      -99.90      -99.90      -99.90      -99.90      -99.90      -99.90      -99.90    
       -99.90      -99.90      -99.90      -99.90      -99.90      -99.90      -99.90      -99.90      -99.90      -99.90    
       -99.90      -99.90      -99.90      -99.90      -99.90      -99.90      -99.90      -99.90      -99.90      -99.90    
       -99.90      -99.90      -99.90      -99.90      -99.90      -99.90      -99.90      -99.90      -99.90      -99.90    
  37   -99.90      -99.90      -99.90      -99.90      -99.90      -99.90      -99.90      -99.90      -99.90      -99.90    
       -99.90      -99.90      -99.90      -99.90      -99.90      -99.90      -99.90      -99.90      -99.90      -99.90    
       -99.90      -99.90      -99.90      -99.90      -99.90      -99.90      -99.90      -99.90      -99.90      -99.90    
       -99.90      -99.90      -99.90      -99.90      -99.90      -99.90      -99.90      -99.90      -99.90      -99.90    
  38   -99.90      -99.90      -99.90      -99.90      -99.90      -99.90      -99.90      -99.90      -99.90      -99.90    
       -99.90      -99.90      -99.90      -99.90      -99.90      -99.90      -99.90      -99.90      -99.90      -99.90    
       -99.90      -99.90      -99.90      -99.90      -99.90      -99.90      -99.90      -99.90      -99.90      -99.90    
       -99.90      -99.90      -99.90      -99.90      -99.90      -99.90      -99.90      -99.90      -99.90      -99.90    
  39   -99.90      -99.90      -99.90      -99.90      -99.90      -99.90      -99.90      -99.90      -99.90      -99.90    
       -99.90      -99.90      -99.90      -99.90      -99.90      -99.90      -99.90      -99.90      -99.90      -99.90    
       -99.90      -99.90      -99.90      -99.90      -99.90      -99.90      -99.90      -99.90      -99.90      -99.90    
       -99.90      -99.90      -99.90      -99.90      -99.90      -99.90      -99.90      -99.90      -99.90      -99.90    
  40   -99.90      -99.90      -99.90      -99.90      -99.90      -99.90      -99.90      -99.90      -99.90      -99.90    
       -99.90      -99.90      -99.90      -99.90      -99.90      -99.90      -99.90      -99.90      -99.90      -99.90    
       -99.90      -99.90      -99.90      -99.90      -99.90      -99.90      -99.90      -99.90      -99.90      -99.90    
       -99.90      -99.90      -99.90      -99.90      -99.90      -99.90      -99.90      -99.90      -99.90      -99.90    
1
              HEAD IN LAYER 4 AT END OF TIME STEP 2 IN STRESS PERIOD 3
  ---------------------------------------------------------------------------

            1           2           3           4           5           6           7           8           9          10
           11          12          13          14          15          16          17          18          19          20
           21          22          23          24          25          26          27          28          29          30
           31          32          33          34          35          36          37          38          39          40
 ........................................................................................................................
   1   -99.90      -99.90      -99.90      -99.90      -99.90      -99.90      -99.90      -99.90      -99.90      -99.90    
       -99.90      -99.90      -99.90      -99.90      -99.90      -99.90      -99.90      -99.90      -99.90      -99.90    
       -99.90      -99.90      -99.90      -99.90      -99.90      -99.90      -99.90      -99.90      -99.90      -99.90    
       -99.90      -99.90      -99.90      -99.90      -99.90      -99.90      -99.90      -99.90      -99.90      -99.90    
   2   -99.90      -99.90      -99.90      -99.90      -99.90      -99.90      -99.90      -99.90      -99.90      -99.90    
       -99.90      -99.90      -99.90      -99.90      -99.90      -99.90      -99.90      -99.90      -99.90      -99.90    
       -99.90      -99.90      -99.90      -99.90      -99.90      -99.90      -99.90      -99.90      -99.90      -99.90    
       -99.90      -99.90      -99.90      -99.90      -99.90      -99.90      -99.90      -99.90      -99.90      -99.90    
   3   -99.90      -99.90      -99.90      -99.90      -99.90      -99.90      -99.90      -99.90      -99.90      -99.90    
       -99.90      -99.90      -99.90      -99.90      -99.90      -99.90      -99.90      -99.90      -99.90      -99.90    
       -99.90      -99.90      -99.90      -99.90      -99.90      -99.90      -99.90      -99.90      -99.90      -99.90    
       -99.90      -99.90      -99.90      -99.90      -99.90      -99.90      -99.90      -99.90      -99.90      -99.90    
   4   -99.90      -99.90      -99.90      -99.90      -99.90      -99.90      -99.90      -99.90      -99.90      -99.90    
       -99.90      -99.90      -99.90      -99.90      -99.90      -99.90      -99.90      -99.90      -99.90      -99.90    
       -99.90      -99.90      -99.90      -99.90      -99.90      -99.90      -99.90      -99.90      -99.90      -99.90    
       -99.90      -99.90      -99.90      -99.90      -99.90      -99.90      -99.90      -99.90      -99.90      -99.90    
   5   -99.90      -99.90      -99.90      -99.90      -99.90      -99.90      -99.90      -99.90      -99.90      -99.90    
       -99.90      -99.90      -99.90      -99.90      -99.90      -99.90      -99.90      -99.90      -99.90      -99.90    
       -99.90      -99.90      -99.90      -99.90      -99.90      -99.90      -99.90      -99.90      -99.90      -99.90    
       -99.90      -99.90      -99.90      -99.90      -99.90      -99.90      -99.90      -99.90      -99.90      -99.90    
   6   -99.90      -99.90      -99.90      -99.90      -99.90      -99.90      -99.90      -99.90      -99.90      -99.90    
       -99.90      -99.90      -99.90      -99.90      -99.90      -99.90      -99.90      -99.90      -99.90      -99.90    
       -99.90      -99.90      -99.90      -99.90      -99.90      -99.90      -99.90      -99.90      -99.90      -99.90    
       -99.90      -99.90      -99.90      -99.90      -99.90      -99.90      -99.90      -99.90      -99.90      -99.90    
   7   -99.90      -99.90      -99.90      -99.90      -99.90      -99.90      -99.90      -99.90      -99.90      -99.90    
       -99.90      -99.90      -99.90      -99.90      -99.90      -99.90      -99.90      -99.90      -99.90      -99.90    
       -99.90      -99.90      -99.90      -99.90      -99.90      -99.90      -99.90      -99.90      -99.90      -99.90    
       -99.90      -99.90      -99.90      -99.90      -99.90      -99.90      -99.90      -99.90      -99.90      -99.90    
   8   -99.90      -99.90      -99.90      -99.90      -99.90      -99.90      -99.90      -99.90      -99.90      -99.90    
       -99.90      -99.90      -99.90      -99.90      -99.90      -99.90      -99.90      -99.90      -99.90      -99.90    
       -99.90      -99.90      -99.90      -99.90      -99.90      -99.90      -99.90      -99.90      -99.90      -99.90    
       -99.90      -99.90      -99.90      -99.90      -99.90      -99.90      -99.90      -99.90      -99.90      -99.90    
   9   -99.90      -99.90      -99.90      -99.90      -99.90      -99.90      -99.90      -99.90      -99.90      -99.90    
       -99.90      -99.90      -99.90      -99.90      -99.90      -99.90      -99.90      -99.90      -99.90      -99.90    
       -99.90      -99.90      -99.90      -99.90      -99.90      -99.90      -99.90      -99.90      -99.90      -99.90    
       -99.90      -99.90      -99.90      -99.90      -99.90      -99.90      -99.90      -99.90      -99.90      -99.90    
  10   -99.90      -99.90      -99.90      -99.90      -99.90      -99.90      -99.90      -99.90      -99.90      -99.90    
       -99.90      -99.90      -99.90      -99.90      -99.90      -99.90      -99.90      -99.90      -99.90      -99.90    
       -99.90      -99.90      -99.90      -99.90      -99.90      -99.90      -99.90      -99.90      -99.90      -99.90    
       -99.90      -99.90      -99.90      -99.90      -99.90      -99.90      -99.90      -99.90      -99.90      -99.90    
  11   -99.90      -99.90      -99.90      -99.90      -99.90      -99.90      -99.90      -99.90      -99.90      -99.90    
       -99.90      -99.90      -99.90      -99.90      -99.90      -99.90      -99.90      -99.90      -99.90      -99.90    
       -99.90      -99.90      -99.90      -99.90      -99.90      -99.90      -99.90      -99.90      -99.90      -99.90    
       -99.90      -99.90      -99.90      -99.90      -99.90      -99.90      -99.90      -99.90      -99.90      -99.90    
  12   -99.90      -99.90      -99.90      -99.90      -99.90      -99.90      -99.90      -99.90      -99.90      -99.90    
       -99.90      -99.90      -99.90      -99.90      -99.90      -99.90      -99.90      -99.90      -99.90      -99.90    
       -99.90      -99.90      -99.90      -99.90      -99.90      -99.90      -99.90      -99.90      -99.90      -99.90    
       -99.90      -99.90      -99.90      -99.90      -99.90      -99.90      -99.90      -99.90      -99.90      -99.90    
  13   -99.90      -99.90      -99.90      -99.90      -99.90      -99.90      -99.90      -99.90      -99.90      -99.90    
       -99.90      -99.90      -99.90      -99.90      -99.90      -99.90      -99.90      -99.90      -99.90      -99.90    
       -99.90      -99.90      -99.90      -99.90      -99.90      -99.90      -99.90      -99.90      -99.90      -99.90    
       -99.90      -99.90      -99.90      -99.90      -99.90      -99.90      -99.90      -99.90      -99.90      -99.90    
  14   -99.90      -99.90      -99.90      -99.90      -99.90      -99.90      -99.90      -99.90      -99.90      -99.90    
       -99.90      -99.90      -99.90      -99.90      -99.90      -99.90      -99.90      -99.90      -99.90      -99.90    
       -99.90      -99.90      -99.90      -99.90      -99.90      -99.90      -99.90      -99.90      -99.90      -99.90    
       -99.90      -99.90      -99.90      -99.90      -99.90      -99.90      -99.90      -99.90      -99.90      -99.90    
  15   -99.90      -99.90      -99.90      -99.90      -99.90      -99.90      -99.90      -99.90      -99.90      -99.90    
       -99.90      -99.90      -99.90      -99.90      -99.90      -99.90      -99.90      -99.90      -99.90      -99.90    
       -99.90      -99.90      -99.90      -99.90      -99.90      -99.90      -99.90      -99.90      -99.90      -99.90    
       -99.90      -99.90      -99.90      -99.90      -99.90      -99.90      -99.90      -99.90      -99.90      -99.90    
  16   -99.90      -99.90      -99.90      -99.90      -99.90      -99.90      -99.90      -99.90      -99.90      -99.90    
       -99.90      -99.90      -99.90      -99.90      -99.90      -99.90      -99.90      -99.90      -99.90      -99.90    
       -99.90      -99.90      -99.90      -99.90      -99.90      -99.90      -99.90      -99.90      -99.90      -99.90    
       -99.90      -99.90      -99.90      -99.90      -99.90      -99.90      -99.90      -99.90      -99.90      -99.90    
  17   -99.90      -99.90      -99.90      -99.90      -99.90      -99.90      -99.90      -99.90      -99.90      -99.90    
       -99.90      -99.90      -99.90      -99.90      -99.90      -99.90      -99.90      -99.90      -99.90      -99.90    
       -99.90      -99.90      -99.90      -99.90      -99.90      -99.90      -99.90      -99.90      -99.90      -99.90    
       -99.90      -99.90      -99.90      -99.90      -99.90      -99.90      -99.90      -99.90      -99.90      -99.90    
  18   -99.90      -99.90      -99.90      -99.90      -99.90      -99.90      -99.90      -99.90      -99.90      -99.90    
       -99.90      -99.90      -99.90      -99.90      -99.90      -99.90      -99.90      -99.90      -99.90      -99.90    
       -99.90      -99.90      -99.90      -99.90      -99.90      -99.90      -99.90      -99.90      -99.90      -99.90    
       -99.90      -99.90      -99.90      -99.90      -99.90      -99.90      -99.90      -99.90      -99.90      -99.90    
  19   -99.90      -99.90      -99.90      -99.90      -99.90      -99.90      -99.90      -99.90      -99.90      -99.90    
       -99.90      -99.90      -99.90      -99.90      -99.90      -99.90      -99.90      -99.90      -99.90      -99.90    
       -99.90      -99.90      -99.90      -99.90      -99.90      -99.90      -99.90      -99.90      -99.90      -99.90    
       -99.90      -99.90      -99.90      -99.90      -99.90      -99.90      -99.90      -99.90      -99.90      -99.90    
  20   -99.90      -99.90      -99.90      -99.90      -99.90      -99.90      -99.90      -99.90      -99.90      -99.90    
       -99.90      -99.90      -99.90      -99.90      -99.90      -99.90      -99.90      -99.90      -99.90      -99.90    
       -99.90      -99.90      -99.90      -99.90      -99.90      -99.90      -99.90      -99.90      -99.90      -99.90    
       -99.90      -99.90      -99.90      -99.90      -99.90      -99.90      -99.90      -99.90      -99.90      -99.90    
  21   -99.90      -99.90      -99.90      -99.90      -99.90      -99.90      -99.90      -99.90      -99.90      -99.90    
       -99.90      -99.90      -99.90      -99.90      -99.90      -99.90      -99.90      -99.90      -99.90      -99.90    
       -99.90      -99.90      -99.90      -99.90      -99.90      -99.90      -99.90      -99.90      -99.90      -99.90    
       -99.90      -99.90      -99.90      -99.90      -99.90      -99.90      -99.90      -99.90      -99.90      -99.90    
  22   -99.90      -99.90      -99.90      -99.90      -99.90      -99.90      -99.90      -99.90      -99.90      -99.90    
       -99.90      -99.90      -99.90      -99.90      -99.90      -99.90      -99.90      -99.90      -99.90      -99.90    
       -99.90      -99.90      -99.90      -99.90      -99.90      -99.90      -99.90      -99.90      -99.90      -99.90    
       -99.90      -99.90      -99.90      -99.90      -99.90      -99.90      -99.90      -99.90      -99.90      -99.90    
  23   -99.90      -99.90      -99.90      -99.90      -99.90      -99.90      -99.90      -99.90      -99.90      -99.90    
       -99.90      -99.90      -99.90      -99.90      -99.90      -99.90      -99.90      -99.90      -99.90      -99.90    
       -99.90      -99.90      -99.90      -99.90      -99.90      -99.90      -99.90      -99.90      -99.90      -99.90    
       -99.90      -99.90      -99.90      -99.90      -99.90      -99.90      -99.90      -99.90      -99.90      -99.90    
  24   -99.90      -99.90      -99.90      -99.90      -99.90      -99.90      -99.90      -99.90      -99.90      -99.90    
       -99.90      -99.90      -99.90      -99.90      -99.90      -99.90      -99.90      -99.90      -99.90      -99.90    
       -99.90      -99.90      -99.90      -99.90      -99.90      -99.90      -99.90      -99.90      -99.90      -99.90    
       -99.90      -99.90      -99.90      -99.90      -99.90      -99.90      -99.90      -99.90      -99.90      -99.90    
  25   -99.90      -99.90      -99.90      -99.90      -99.90      -99.90      -99.90      -99.90      -99.90      -99.90    
       -99.90      -99.90      -99.90      -99.90      -99.90      -99.90      -99.90      -99.90      -99.90      -99.90    
       -99.90      -99.90      -99.90      -99.90      -99.90      -99.90      -99.90      -99.90      -99.90      -99.90    
       -99.90      -99.90      -99.90      -99.90      -99.90      -99.90      -99.90      -99.90      -99.90      -99.90    
  26   -99.90      -99.90      -99.90      -99.90      -99.90      -99.90      -99.90      -99.90      -99.90      -99.90    
       -99.90      -99.90      -99.90      -99.90      -99.90      -99.90      -99.90      -99.90      -99.90      -99.90    
       -99.90      -99.90      -99.90      -99.90      -99.90      -99.90      -99.90      -99.90      -99.90      -99.90    
       -99.90      -99.90      -99.90      -99.90      -99.90      -99.90      -99.90      -99.90      -99.90      -99.90    
  27   -99.90      -99.90      -99.90      -99.90      -99.90      -99.90      -99.90      -99.90      -99.90      -99.90    
       -99.90      -99.90      -99.90      -99.90      -99.90      -99.90      -99.90      -99.90      -99.90      -99.90    
       -99.90      -99.90      -99.90      -99.90      -99.90      -99.90      -99.90      -99.90      -99.90      -99.90    
       -99.90      -99.90      -99.90      -99.90      -99.90      -99.90      -99.90      -99.90      -99.90      -99.90    
  28   -99.90      -99.90      -99.90      -99.90      -99.90      -99.90      -99.90      -99.90      -99.90      -99.90    
       -99.90      -99.90      -99.90      -99.90      -99.90      -99.90      -99.90      -99.90      -99.90      -99.90    
       -99.90      -99.90      -99.90      -99.90      -99.90      -99.90      -99.90      -99.90      -99.90      -99.90    
       -99.90      -99.90      -99.90      -99.90      -99.90      -99.90      -99.90      -99.90      -99.90      -99.90    
  29   -99.90      -99.90      -99.90      -99.90      -99.90      -99.90      -99.90      -99.90      -99.90      -99.90    
       -99.90      -99.90      -99.90      -99.90      -99.90      -99.90      -99.90      -99.90      -99.90      -99.90    
       -99.90      -99.90      -99.90      -99.90      -99.90      -99.90      -99.90      -99.90      -99.90      -99.90    
       -99.90      -99.90      -99.90      -99.90      -99.90      -99.90      -99.90      -99.90      -99.90      -99.90    
  30   -99.90      -99.90      -99.90      -99.90      -99.90      -99.90      -99.90      -99.90      -99.90      -99.90    
       -99.90      -99.90      -99.90      -99.90      -99.90      -99.90      -99.90      -99.90      -99.90      -99.90    
       -99.90      -99.90      -99.90      -99.90      -99.90      -99.90      -99.90      -99.90      -99.90      -99.90    
       -99.90      -99.90      -99.90      -99.90      -99.90      -99.90      -99.90      -99.90      -99.90      -99.90    
  31   -99.90      -99.90      -99.90      -99.90      -99.90      -99.90      -99.90      -99.90      -99.90      -99.90    
       -99.90      -99.90      -99.90      -99.90      -99.90      -99.90      -99.90      -99.90      -99.90      -99.90    
       -99.90      -99.90      -99.90      -99.90      -99.90      -99.90      -99.90      -99.90      -99.90      -99.90    
       -99.90      -99.90      -99.90      -99.90      -99.90      -99.90      -99.90      -99.90      -99.90      -99.90    
  32   -99.90      -99.90      -99.90      -99.90      -99.90      -99.90      -99.90      -99.90      -99.90      -99.90    
       -99.90      -99.90      -99.90      -99.90      -99.90      -99.90      -99.90      -99.90      -99.90      -99.90    
       -99.90      -99.90      -99.90      -99.90      -99.90      -99.90      -99.90      -99.90      -99.90      -99.90    
       -99.90      -99.90      -99.90      -99.90      -99.90      -99.90      -99.90      -99.90      -99.90      -99.90    
  33   -99.90      -99.90      -99.90      -99.90      -99.90      -99.90      -99.90      -99.90      -99.90      -99.90    
       -99.90      -99.90      -99.90      -99.90      -99.90      -99.90      -99.90      -99.90      -99.90      -99.90    
       -99.90      -99.90      -99.90      -99.90      -99.90      -99.90      -99.90      -99.90      -99.90      -99.90    
       -99.90      -99.90      -99.90      -99.90      -99.90      -99.90      -99.90      -99.90      -99.90      -99.90    
  34   -99.90      -99.90      -99.90      -99.90      -99.90      -99.90      -99.90      -99.90      -99.90      -99.90    
       -99.90      -99.90      -99.90      -99.90      -99.90      -99.90      -99.90      -99.90      -99.90      -99.90    
       -99.90      -99.90      -99.90      -99.90      -99.90      -99.90      -99.90      -99.90      -99.90      -99.90    
       -99.90      -99.90      -99.90      -99.90      -99.90      -99.90      -99.90      -99.90      -99.90      -99.90    
  35   -99.90      -99.90      -99.90      -99.90      -99.90      -99.90      -99.90      -99.90      -99.90      -99.90    
       -99.90      -99.90      -99.90      -99.90      -99.90      -99.90      -99.90      -99.90      -99.90      -99.90    
       -99.90      -99.90      -99.90      -99.90      -99.90      -99.90      -99.90      -99.90      -99.90      -99.90    
       -99.90      -99.90      -99.90      -99.90      -99.90      -99.90      -99.90      -99.90      -99.90      -99.90    
  36   -99.90      -99.90      -99.90      -99.90      -99.90      -99.90      -99.90      -99.90      -99.90      -99.90    
       -99.90      -99.90      -99.90      -99.90      -99.90      -99.90      -99.90      -99.90      -99.90      -99.90    
       -99.90      -99.90      -99.90      -99.90      -99.90      -99.90      -99.90      -99.90      -99.90      -99.90    
       -99.90      -99.90      -99.90      -99.90      -99.90      -99.90      -99.90      -99.90      -99.90      -99.90    
  37   -99.90      -99.90      -99.90      -99.90      -99.90      -99.90      -99.90      -99.90      -99.90      -99.90    
       -99.90      -99.90      -99.90      -99.90      -99.90      -99.90      -99.90      -99.90      -99.90      -99.90    
       -99.90      -99.90      -99.90      -99.90      -99.90      -99.90      -99.90      -99.90      -99.90      -99.90    
       -99.90      -99.90      -99.90      -99.90      -99.90      -99.90      -99.90      -99.90      -99.90      -99.90    
  38   -99.90      -99.90      -99.90      -99.90      -99.90      -99.90      -99.90      -99.90      -99.90      -99.90    
       -99.90      -99.90      -99.90      -99.90      -99.90      -99.90      -99.90      -99.90      -99.90      -99.90    
       -99.90      -99.90      -99.90      -99.90      -99.90      -99.90      -99.90      -99.90      -99.90      -99.90    
       -99.90      -99.90      -99.90      -99.90      -99.90      -99.90      -99.90      -99.90      -99.90      -99.90    
  39   -99.90      -99.90      -99.90      -99.90      -99.90      -99.90      -99.90      -99.90      -99.90      -99.90    
       -99.90      -99.90      -99.90      -99.90      -99.90      -99.90      -99.90      -99.90      -99.90      -99.90    
       -99.90      -99.90      -99.90      -99.90      -99.90      -99.90      -99.90      -99.90      -99.90      -99.90    
       -99.90      -99.90      -99.90      -99.90      -99.90      -99.90      -99.90      -99.90      -99.90      -99.90    
  40   -99.90      -99.90      -99.90      -99.90      -99.90      -99.90      -99.90      -99.90      -99.90      -99.90    
       -99.90      -99.90      -99.90      -99.90      -99.90      -99.90      -99.90      -99.90      -99.90      -99.90    
       -99.90      -99.90      -99.90      -99.90      -99.90      -99.90      -99.90      -99.90      -99.90      -99.90    
       -99.90      -99.90      -99.90      -99.90      -99.90      -99.90      -99.90      -99.90      -99.90      -99.90    
1
              HEAD IN LAYER 5 AT END OF TIME STEP 2 IN STRESS PERIOD 3
  ---------------------------------------------------------------------------

            1           2           3           4           5           6           7           8           9          10
           11          12          13          14          15          16          17          18          19          20
           21          22          23          24          25          26          27          28          29          30
           31          32          33          34          35          36          37          38          39          40
 ........................................................................................................................
   1    48.90       47.23      -99.90      -99.90      -99.90      -99.90      -99.90      -99.90      -99.90      -99.90    
       -99.90      -99.90      -99.90      -99.90      -99.90      -99.90      -99.90      -99.90      -99.90      -99.90    
       -99.90      -99.90      -99.90      -99.90      -99.90      -99.90      -99.90      -99.90      -99.90      -99.90    
       -99.90      -99.90      -99.90      -99.90      -99.90      -99.90      -99.90      -99.90      -99.90      -99.90    
   2    47.23       45.80      -99.90      -99.90      -99.90      -99.90      -99.90      -99.90      -99.90      -99.90    
       -99.90      -99.90      -99.90      -99.90      -99.90      -99.90      -99.90      -99.90      -99.90      -99.90    
       -99.90      -99.90      -99.90      -99.90      -99.90      -99.90      -99.90      -99.90      -99.90      -99.90    
       -99.90      -99.90      -99.90      -99.90      -99.90      -99.90      -99.90      -99.90      -99.90      -99.90    
   3   -99.90      -99.90      -99.90      -99.90      -99.90      -99.90      -99.90      -99.90      -99.90      -99.90    
       -99.90      -99.90      -99.90      -99.90      -99.90      -99.90      -99.90      -99.90      -99.90      -99.90    
       -99.90      -99.90      -99.90      -99.90      -99.90      -99.90      -99.90      -99.90      -99.90      -99.90    
       -99.90      -99.90      -99.90      -99.90      -99.90      -99.90      -99.90      -99.90      -99.90      -99.90    
   4   -99.90      -99.90      -99.90      -99.90      -99.90      -99.90      -99.90      -99.90      -99.90      -99.90    
       -99.90      -99.90      -99.90      -99.90      -99.90      -99.90      -99.90      -99.90      -99.90      -99.90    
       -99.90      -99.90      -99.90      -99.90      -99.90      -99.90      -99.90      -99.90      -99.90      -99.90    
       -99.90      -99.90      -99.90      -99.90      -99.90      -99.90      -99.90      -99.90      -99.90      -99.90    
   5   -99.90      -99.90      -99.90      -99.90      -99.90      -99.90      -99.90      -99.90      -99.90      -99.90    
       -99.90      -99.90      -99.90      -99.90      -99.90      -99.90      -99.90      -99.90      -99.90      -99.90    
       -99.90      -99.90      -99.90      -99.90      -99.90      -99.90      -99.90      -99.90      -99.90      -99.90    
       -99.90      -99.90      -99.90      -99.90      -99.90      -99.90      -99.90      -99.90      -99.90      -99.90    
   6   -99.90      -99.90      -99.90      -99.90      -99.90      -99.90      -99.90      -99.90      -99.90      -99.90    
       -99.90      -99.90      -99.90      -99.90      -99.90      -99.90      -99.90      -99.90      -99.90      -99.90    
       -99.90      -99.90      -99.90      -99.90      -99.90      -99.90      -99.90      -99.90      -99.90      -99.90    
       -99.90      -99.90      -99.90      -99.90      -99.90      -99.90      -99.90      -99.90      -99.90      -99.90    
   7   -99.90      -99.90      -99.90      -99.90      -99.90      -99.90      -99.90      -99.90      -99.90      -99.90    
       -99.90      -99.90      -99.90      -99.90      -99.90      -99.90      -99.90      -99.90      -99.90      -99.90    
       -99.90      -99.90      -99.90      -99.90      -99.90      -99.90      -99.90      -99.90      -99.90      -99.90    
       -99.90      -99.90      -99.90      -99.90      -99.90      -99.90      -99.90      -99.90      -99.90      -99.90    
   8   -99.90      -99.90      -99.90      -99.90      -99.90      -99.90      -99.90      -99.90      -99.90      -99.90    
       -99.90      -99.90      -99.90      -99.90      -99.90      -99.90      -99.90      -99.90      -99.90      -99.90    
       -99.90      -99.90      -99.90      -99.90      -99.90      -99.90      -99.90      -99.90      -99.90      -99.90    
       -99.90      -99.90      -99.90      -99.90      -99.90      -99.90      -99.90      -99.90      -99.90      -99.90    
   9   -99.90      -99.90      -99.90      -99.90      -99.90      -99.90      -99.90      -99.90      -99.90      -99.90    
       -99.90      -99.90      -99.90      -99.90      -99.90      -99.90      -99.90      -99.90      -99.90      -99.90    
       -99.90      -99.90      -99.90      -99.90      -99.90      -99.90      -99.90      -99.90      -99.90      -99.90    
       -99.90      -99.90      -99.90      -99.90      -99.90      -99.90      -99.90      -99.90      -99.90      -99.90    
  10   -99.90      -99.90      -99.90      -99.90      -99.90      -99.90      -99.90      -99.90      -99.90      -99.90    
       -99.90      -99.90      -99.90      -99.90      -99.90      -99.90      -99.90      -99.90      -99.90      -99.90    
       -99.90      -99.90      -99.90      -99.90      -99.90      -99.90      -99.90      -99.90      -99.90      -99.90    
       -99.90      -99.90      -99.90      -99.90      -99.90      -99.90      -99.90      -99.90      -99.90      -99.90    
  11   -99.90      -99.90      -99.90      -99.90      -99.90      -99.90      -99.90      -99.90      -99.90      -99.90    
       -99.90      -99.90      -99.90      -99.90      -99.90      -99.90      -99.90      -99.90      -99.90      -99.90    
       -99.90      -99.90      -99.90      -99.90      -99.90      -99.90      -99.90      -99.90      -99.90      -99.90    
       -99.90      -99.90      -99.90      -99.90      -99.90      -99.90      -99.90      -99.90      -99.90      -99.90    
  12   -99.90      -99.90      -99.90      -99.90      -99.90      -99.90      -99.90      -99.90      -99.90      -99.90    
       -99.90      -99.90      -99.90      -99.90      -99.90      -99.90      -99.90      -99.90      -99.90      -99.90    
       -99.90      -99.90      -99.90      -99.90      -99.90      -99.90      -99.90      -99.90      -99.90      -99.90    
       -99.90      -99.90      -99.90      -99.90      -99.90      -99.90      -99.90      -99.90      -99.90      -99.90    
  13   -99.90      -99.90      -99.90      -99.90      -99.90      -99.90      -99.90      -99.90      -99.90      -99.90    
       -99.90      -99.90      -99.90      -99.90      -99.90      -99.90      -99.90      -99.90      -99.90      -99.90    
       -99.90      -99.90      -99.90      -99.90      -99.90      -99.90      -99.90      -99.90      -99.90      -99.90    
       -99.90      -99.90      -99.90      -99.90      -99.90      -99.90      -99.90      -99.90      -99.90      -99.90    
  14   -99.90      -99.90      -99.90      -99.90      -99.90      -99.90      -99.90      -99.90      -99.90      -99.90    
       -99.90      -99.90      -99.90      -99.90      -99.90      -99.90      -99.90      -99.90      -99.90      -99.90    
       -99.90      -99.90      -99.90      -99.90      -99.90      -99.90      -99.90      -99.90      -99.90      -99.90    
       -99.90      -99.90      -99.90      -99.90      -99.90      -99.90      -99.90      -99.90      -99.90      -99.90    
  15   -99.90      -99.90      -99.90      -99.90      -99.90      -99.90      -99.90      -99.90      -99.90      -99.90    
       -99.90      -99.90      -99.90      -99.90      -99.90      -99.90      -99.90      -99.90      -99.90      -99.90    
       -99.90      -99.90      -99.90      -99.90      -99.90      -99.90      -99.90      -99.90      -99.90      -99.90    
       -99.90      -99.90      -99.90      -99.90      -99.90      -99.90      -99.90      -99.90      -99.90      -99.90    
  16   -99.90      -99.90      -99.90      -99.90      -99.90      -99.90      -99.90      -99.90      -99.90      -99.90    
       -99.90      -99.90      -99.90      -99.90      -99.90      -99.90      -99.90      -99.90      -99.90      -99.90    
       -99.90      -99.90      -99.90      -99.90      -99.90      -99.90      -99.90      -99.90      -99.90      -99.90    
       -99.90      -99.90      -99.90      -99.90      -99.90      -99.90      -99.90      -99.90      -99.90      -99.90    
  17   -99.90      -99.90      -99.90      -99.90      -99.90      -99.90      -99.90      -99.90      -99.90      -99.90    
       -99.90      -99.90      -99.90      -99.90      -99.90      -99.90      -99.90      -99.90      -99.90      -99.90    
       -99.90      -99.90      -99.90      -99.90      -99.90      -99.90      -99.90      -99.90      -99.90      -99.90    
       -99.90      -99.90      -99.90      -99.90      -99.90      -99.90      -99.90      -99.90      -99.90      -99.90    
  18   -99.90      -99.90      -99.90      -99.90      -99.90      -99.90      -99.90      -99.90      -99.90      -99.90    
       -99.90      -99.90      -99.90      -99.90      -99.90      -99.90      -99.90      -99.90      -99.90      -99.90    
       -99.90      -99.90      -99.90      -99.90      -99.90      -99.90      -99.90      -99.90      -99.90      -99.90    
       -99.90      -99.90      -99.90      -99.90      -99.90      -99.90      -99.90      -99.90      -99.90      -99.90    
  19   -99.90      -99.90      -99.90      -99.90      -99.90      -99.90      -99.90      -99.90      -99.90      -99.90    
       -99.90      -99.90      -99.90      -99.90      -99.90      -99.90      -99.90      -99.90      -99.90      -99.90    
       -99.90      -99.90      -99.90      -99.90      -99.90      -99.90      -99.90      -99.90      -99.90      -99.90    
       -99.90      -99.90      -99.90      -99.90      -99.90      -99.90      -99.90      -99.90      -99.90      -99.90    
  20   -99.90      -99.90      -99.90      -99.90      -99.90      -99.90      -99.90      -99.90      -99.90      -99.90    
       -99.90      -99.90      -99.90      -99.90      -99.90      -99.90      -99.90      -99.90      -99.90      -99.90    
       -99.90      -99.90      -99.90      -99.90      -99.90      -99.90      -99.90      -99.90      -99.90      -99.90    
       -99.90      -99.90      -99.90      -99.90      -99.90      -99.90      -99.90      -99.90      -99.90      -99.90    
  21   -99.90      -99.90      -99.90      -99.90      -99.90      -99.90      -99.90      -99.90      -99.90      -99.90    
       -99.90      -99.90      -99.90      -99.90      -99.90      -99.90      -99.90      -99.90      -99.90      -99.90    
       -99.90      -99.90      -99.90      -99.90      -99.90      -99.90      -99.90      -99.90      -99.90      -99.90    
       -99.90      -99.90      -99.90      -99.90      -99.90      -99.90      -99.90      -99.90      -99.90      -99.90    
  22   -99.90      -99.90      -99.90      -99.90      -99.90      -99.90      -99.90      -99.90      -99.90      -99.90    
       -99.90      -99.90      -99.90      -99.90      -99.90      -99.90      -99.90      -99.90      -99.90      -99.90    
       -99.90      -99.90      -99.90      -99.90      -99.90      -99.90      -99.90      -99.90      -99.90      -99.90    
       -99.90      -99.90      -99.90      -99.90      -99.90      -99.90      -99.90      -99.90      -99.90      -99.90    
  23   -99.90      -99.90      -99.90      -99.90      -99.90      -99.90      -99.90      -99.90      -99.90      -99.90    
       -99.90      -99.90      -99.90      -99.90      -99.90      -99.90      -99.90      -99.90      -99.90      -99.90    
       -99.90      -99.90      -99.90      -99.90      -99.90      -99.90      -99.90      -99.90      -99.90      -99.90    
       -99.90      -99.90      -99.90      -99.90      -99.90      -99.90      -99.90      -99.90      -99.90      -99.90    
  24   -99.90      -99.90      -99.90      -99.90      -99.90      -99.90      -99.90      -99.90      -99.90      -99.90    
       -99.90      -99.90      -99.90      -99.90      -99.90      -99.90      -99.90      -99.90      -99.90      -99.90    
       -99.90      -99.90      -99.90      -99.90      -99.90      -99.90      -99.90      -99.90      -99.90      -99.90    
       -99.90      -99.90      -99.90      -99.90      -99.90      -99.90      -99.90      -99.90      -99.90      -99.90    
  25   -99.90      -99.90      -99.90      -99.90      -99.90      -99.90      -99.90      -99.90      -99.90      -99.90    
       -99.90      -99.90      -99.90      -99.90      -99.90      -99.90      -99.90      -99.90      -99.90      -99.90    
       -99.90      -99.90      -99.90      -99.90      -99.90      -99.90      -99.90      -99.90      -99.90      -99.90    
       -99.90      -99.90      -99.90      -99.90      -99.90      -99.90      -99.90      -99.90      -99.90      -99.90    
  26   -99.90      -99.90      -99.90      -99.90      -99.90      -99.90      -99.90      -99.90      -99.90      -99.90    
       -99.90      -99.90      -99.90      -99.90      -99.90      -99.90      -99.90      -99.90      -99.90      -99.90    
       -99.90      -99.90      -99.90      -99.90      -99.90      -99.90      -99.90      -99.90      -99.90      -99.90    
       -99.90      -99.90      -99.90      -99.90      -99.90      -99.90      -99.90      -99.90      -99.90      -99.90    
  27   -99.90      -99.90      -99.90      -99.90      -99.90      -99.90      -99.90      -99.90      -99.90      -99.90    
       -99.90      -99.90      -99.90      -99.90      -99.90      -99.90      -99.90      -99.90      -99.90      -99.90    
       -99.90      -99.90      -99.90      -99.90      -99.90      -99.90      -99.90      -99.90      -99.90      -99.90    
       -99.90      -99.90      -99.90      -99.90      -99.90      -99.90      -99.90      -99.90      -99.90      -99.90    
  28   -99.90      -99.90      -99.90      -99.90      -99.90      -99.90      -99.90      -99.90      -99.90      -99.90    
       -99.90      -99.90      -99.90      -99.90      -99.90      -99.90      -99.90      -99.90      -99.90      -99.90    
       -99.90      -99.90      -99.90      -99.90      -99.90      -99.90      -99.90      -99.90      -99.90      -99.90    
       -99.90      -99.90      -99.90      -99.90      -99.90      -99.90      -99.90      -99.90      -99.90      -99.90    
  29   -99.90      -99.90      -99.90      -99.90      -99.90      -99.90      -99.90      -99.90      -99.90      -99.90    
       -99.90      -99.90      -99.90      -99.90      -99.90      -99.90      -99.90      -99.90      -99.90      -99.90    
       -99.90      -99.90      -99.90      -99.90      -99.90      -99.90      -99.90      -99.90      -99.90      -99.90    
       -99.90      -99.90      -99.90      -99.90      -99.90      -99.90      -99.90      -99.90      -99.90      -99.90    
  30   -99.90      -99.90      -99.90      -99.90      -99.90      -99.90      -99.90      -99.90      -99.90      -99.90    
       -99.90      -99.90      -99.90      -99.90      -99.90      -99.90      -99.90      -99.90      -99.90      -99.90    
       -99.90      -99.90      -99.90      -99.90      -99.90      -99.90      -99.90      -99.90      -99.90      -99.90    
       -99.90      -99.90      -99.90      -99.90      -99.90      -99.90      -99.90      -99.90      -99.90      -99.90    
  31   -99.90      -99.90      -99.90      -99.90      -99.90      -99.90      -99.90      -99.90      -99.90      -99.90    
       -99.90      -99.90      -99.90      -99.90      -99.90      -99.90      -99.90      -99.90      -99.90      -99.90    
       -99.90      -99.90      -99.90      -99.90      -99.90      -99.90      -99.90      -99.90      -99.90      -99.90    
       -99.90      -99.90      -99.90      -99.90      -99.90      -99.90      -99.90      -99.90      -99.90      -99.90    
  32   -99.90      -99.90      -99.90      -99.90      -99.90      -99.90      -99.90      -99.90      -99.90      -99.90    
       -99.90      -99.90      -99.90      -99.90      -99.90      -99.90      -99.90      -99.90      -99.90      -99.90    
       -99.90      -99.90      -99.90      -99.90      -99.90      -99.90      -99.90      -99.90      -99.90      -99.90    
       -99.90      -99.90      -99.90      -99.90      -99.90      -99.90      -99.90      -99.90      -99.90      -99.90    
  33   -99.90      -99.90      -99.90      -99.90      -99.90      -99.90      -99.90      -99.90      -99.90      -99.90    
       -99.90      -99.90      -99.90      -99.90      -99.90      -99.90      -99.90      -99.90      -99.90      -99.90    
       -99.90      -99.90      -99.90      -99.90      -99.90      -99.90      -99.90      -99.90      -99.90      -99.90    
       -99.90      -99.90      -99.90      -99.90      -99.90      -99.90      -99.90      -99.90      -99.90      -99.90    
  34   -99.90      -99.90      -99.90      -99.90      -99.90      -99.90      -99.90      -99.90      -99.90      -99.90    
       -99.90      -99.90      -99.90      -99.90      -99.90      -99.90      -99.90      -99.90      -99.90      -99.90    
       -99.90      -99.90      -99.90      -99.90      -99.90      -99.90      -99.90      -99.90      -99.90      -99.90    
       -99.90      -99.90      -99.90      -99.90      -99.90      -99.90      -99.90      -99.90      -99.90      -99.90    
  35   -99.90      -99.90      -99.90      -99.90      -99.90      -99.90      -99.90      -99.90      -99.90      -99.90    
       -99.90      -99.90      -99.90      -99.90      -99.90      -99.90      -99.90      -99.90      -99.90      -99.90    
       -99.90      -99.90      -99.90      -99.90      -99.90      -99.90      -99.90      -99.90      -99.90      -99.90    
       -99.90      -99.90      -99.90      -99.90      -99.90      -99.90      -99.90      -99.90      -99.90      -99.90    
  36   -99.90      -99.90      -99.90      -99.90      -99.90      -99.90      -99.90      -99.90      -99.90      -99.90    
       -99.90      -99.90      -99.90      -99.90      -99.90      -99.90      -99.90      -99.90      -99.90      -99.90    
       -99.90      -99.90      -99.90      -99.90      -99.90      -99.90      -99.90      -99.90      -99.90      -99.90    
       -99.90      -99.90      -99.90      -99.90      -99.90      -99.90      -99.90      -99.90      -99.90      -99.90    
  37   -99.90      -99.90      -99.90      -99.90      -99.90      -99.90      -99.90      -99.90      -99.90      -99.90    
       -99.90      -99.90      -99.90      -99.90      -99.90      -99.90      -99.90      -99.90      -99.90      -99.90    
       -99.90      -99.90      -99.90      -99.90      -99.90      -99.90      -99.90      -99.90      -99.90      -99.90    
       -99.90      -99.90      -99.90      -99.90      -99.90      -99.90      -99.90      -99.90      -99.90      -99.90    
  38   -99.90      -99.90      -99.90      -99.90      -99.90      -99.90      -99.90      -99.90      -99.90      -99.90    
       -99.90      -99.90      -99.90      -99.90      -99.90      -99.90      -99.90      -99.90      -99.90      -99.90    
       -99.90      -99.90      -99.90      -99.90      -99.90      -99.90      -99.90      -99.90      -99.90      -99.90    
       -99.90      -99.90      -99.90      -99.90      -99.90      -99.90      -99.90      -99.90      -99.90      -99.90    
  39   -99.90      -99.90      -99.90      -99.90      -99.90      -99.90      -99.90      -99.90      -99.90      -99.90    
       -99.90      -99.90      -99.90      -99.90      -99.90      -99.90      -99.90      -99.90      -99.90      -99.90    
       -99.90      -99.90      -99.90      -99.90      -99.90      -99.90      -99.90      -99.90      -99.90      -99.90    
       -99.90      -99.90      -99.90      -99.90      -99.90      -99.90      -99.90      -99.90      -99.90      -99.90    
  40   -99.90      -99.90      -99.90      -99.90      -99.90      -99.90      -99.90      -99.90      -99.90      -99.90    
       -99.90      -99.90      -99.90      -99.90      -99.90      -99.90      -99.90      -99.90      -99.90      -99.90    
       -99.90      -99.90      -99.90      -99.90      -99.90      -99.90      -99.90      -99.90      -99.90      -99.90    
       -99.90      -99.90      -99.90      -99.90      -99.90      -99.90      -99.90      -99.90      -99.90      -99.90    
1
              HEAD IN LAYER 6 AT END OF TIME STEP 2 IN STRESS PERIOD 3
  ---------------------------------------------------------------------------

            1           2           3           4           5           6           7           8           9          10
           11          12          13          14          15          16          17          18          19          20
           21          22          23          24          25          26          27          28          29          30
           31          32          33          34          35          36          37          38          39          40
 ........................................................................................................................
   1    48.01       46.31       41.45      -99.90      -99.90      -99.90      -99.90      -99.90      -99.90      -99.90    
       -99.90      -99.90      -99.90      -99.90      -99.90      -99.90      -99.90      -99.90      -99.90      -99.90    
       -99.90      -99.90      -99.90      -99.90      -99.90      -99.90      -99.90      -99.90      -99.90      -99.90    
       -99.90      -99.90      -99.90      -99.90      -99.90      -99.90      -99.90      -99.90      -99.90      -99.90    
   2    46.31       44.83       40.34      -99.90      -99.90      -99.90      -99.90      -99.90      -99.90      -99.90    
       -99.90      -99.90      -99.90      -99.90      -99.90      -99.90      -99.90      -99.90      -99.90      -99.90    
       -99.90      -99.90      -99.90      -99.90      -99.90      -99.90      -99.90      -99.90      -99.90      -99.90    
       -99.90      -99.90      -99.90      -99.90      -99.90      -99.90      -99.90      -99.90      -99.90      -99.90    
   3    41.45       40.34      -99.90      -99.90      -99.90      -99.90      -99.90      -99.90      -99.90      -99.90    
       -99.90      -99.90      -99.90      -99.90      -99.90      -99.90      -99.90      -99.90      -99.90      -99.90    
       -99.90      -99.90      -99.90      -99.90      -99.90      -99.90      -99.90      -99.90      -99.90      -99.90    
       -99.90      -99.90      -99.90      -99.90      -99.90      -99.90      -99.90      -99.90      -99.90      -99.90    
   4   -99.90      -99.90      -99.90      -99.90      -99.90      -99.90      -99.90      -99.90      -99.90      -99.90    
       -99.90      -99.90      -99.90      -99.90      -99.90      -99.90      -99.90      -99.90      -99.90      -99.90    
       -99.90      -99.90      -99.90      -99.90      -99.90      -99.90      -99.90      -99.90      -99.90      -99.90    
       -99.90      -99.90      -99.90      -99.90      -99.90      -99.90      -99.90      -99.90      -99.90      -99.90    
   5   -99.90      -99.90      -99.90      -99.90      -99.90      -99.90      -99.90      -99.90      -99.90      -99.90    
       -99.90      -99.90      -99.90      -99.90      -99.90      -99.90      -99.90      -99.90      -99.90      -99.90    
       -99.90      -99.90      -99.90      -99.90      -99.90      -99.90      -99.90      -99.90      -99.90      -99.90    
       -99.90      -99.90      -99.90      -99.90      -99.90      -99.90      -99.90      -99.90      -99.90      -99.90    
   6   -99.90      -99.90      -99.90      -99.90      -99.90      -99.90      -99.90      -99.90      -99.90      -99.90    
       -99.90      -99.90      -99.90      -99.90      -99.90      -99.90      -99.90      -99.90      -99.90      -99.90    
       -99.90      -99.90      -99.90      -99.90      -99.90      -99.90      -99.90      -99.90      -99.90      -99.90    
       -99.90      -99.90      -99.90      -99.90      -99.90      -99.90      -99.90      -99.90      -99.90      -99.90    
   7   -99.90      -99.90      -99.90      -99.90      -99.90      -99.90      -99.90      -99.90      -99.90      -99.90    
       -99.90      -99.90      -99.90      -99.90      -99.90      -99.90      -99.90      -99.90      -99.90      -99.90    
       -99.90      -99.90      -99.90      -99.90      -99.90      -99.90      -99.90      -99.90      -99.90      -99.90    
       -99.90      -99.90      -99.90      -99.90      -99.90      -99.90      -99.90      -99.90      -99.90      -99.90    
   8   -99.90      -99.90      -99.90      -99.90      -99.90      -99.90      -99.90      -99.90      -99.90      -99.90    
       -99.90      -99.90      -99.90      -99.90      -99.90      -99.90      -99.90      -99.90      -99.90      -99.90    
       -99.90      -99.90      -99.90      -99.90      -99.90      -99.90      -99.90      -99.90      -99.90      -99.90    
       -99.90      -99.90      -99.90      -99.90      -99.90      -99.90      -99.90      -99.90      -99.90      -99.90    
   9   -99.90      -99.90      -99.90      -99.90      -99.90      -99.90      -99.90      -99.90      -99.90      -99.90    
       -99.90      -99.90      -99.90      -99.90      -99.90      -99.90      -99.90      -99.90      -99.90      -99.90    
       -99.90      -99.90      -99.90      -99.90      -99.90      -99.90      -99.90      -99.90      -99.90      -99.90    
       -99.90      -99.90      -99.90      -99.90      -99.90      -99.90      -99.90      -99.90      -99.90      -99.90    
  10   -99.90      -99.90      -99.90      -99.90      -99.90      -99.90      -99.90      -99.90      -99.90      -99.90    
       -99.90      -99.90      -99.90      -99.90      -99.90      -99.90      -99.90      -99.90      -99.90      -99.90    
       -99.90      -99.90      -99.90      -99.90      -99.90      -99.90      -99.90      -99.90      -99.90      -99.90    
       -99.90      -99.90      -99.90      -99.90      -99.90      -99.90      -99.90      -99.90      -99.90      -99.90    
  11   -99.90      -99.90      -99.90      -99.90      -99.90      -99.90      -99.90      -99.90      -99.90      -99.90    
       -99.90      -99.90      -99.90      -99.90      -99.90      -99.90      -99.90      -99.90      -99.90      -99.90    
       -99.90      -99.90      -99.90      -99.90      -99.90      -99.90      -99.90      -99.90      -99.90      -99.90    
       -99.90      -99.90      -99.90      -99.90      -99.90      -99.90      -99.90      -99.90      -99.90      -99.90    
  12   -99.90      -99.90      -99.90      -99.90      -99.90      -99.90      -99.90      -99.90      -99.90      -99.90    
       -99.90      -99.90      -99.90      -99.90      -99.90      -99.90      -99.90      -99.90      -99.90      -99.90    
       -99.90      -99.90      -99.90      -99.90      -99.90      -99.90      -99.90      -99.90      -99.90      -99.90    
       -99.90      -99.90      -99.90      -99.90      -99.90      -99.90      -99.90      -99.90      -99.90      -99.90    
  13   -99.90      -99.90      -99.90      -99.90      -99.90      -99.90      -99.90      -99.90      -99.90      -99.90    
       -99.90      -99.90      -99.90      -99.90      -99.90      -99.90      -99.90      -99.90      -99.90      -99.90    
       -99.90      -99.90      -99.90      -99.90      -99.90      -99.90      -99.90      -99.90      -99.90      -99.90    
       -99.90      -99.90      -99.90      -99.90      -99.90      -99.90      -99.90      -99.90      -99.90      -99.90    
  14   -99.90      -99.90      -99.90      -99.90      -99.90      -99.90      -99.90      -99.90      -99.90      -99.90    
       -99.90      -99.90      -99.90      -99.90      -99.90      -99.90      -99.90      -99.90      -99.90      -99.90    
       -99.90      -99.90      -99.90      -99.90      -99.90      -99.90      -99.90      -99.90      -99.90      -99.90    
       -99.90      -99.90      -99.90      -99.90      -99.90      -99.90      -99.90      -99.90      -99.90      -99.90    
  15   -99.90      -99.90      -99.90      -99.90      -99.90      -99.90      -99.90      -99.90      -99.90      -99.90    
       -99.90      -99.90      -99.90      -99.90      -99.90      -99.90      -99.90      -99.90      -99.90      -99.90    
       -99.90      -99.90      -99.90      -99.90      -99.90      -99.90      -99.90      -99.90      -99.90      -99.90    
       -99.90      -99.90      -99.90      -99.90      -99.90      -99.90      -99.90      -99.90      -99.90      -99.90    
  16   -99.90      -99.90      -99.90      -99.90      -99.90      -99.90      -99.90      -99.90      -99.90      -99.90    
       -99.90      -99.90      -99.90      -99.90      -99.90      -99.90      -99.90      -99.90      -99.90      -99.90    
       -99.90      -99.90      -99.90      -99.90      -99.90      -99.90      -99.90      -99.90      -99.90      -99.90    
       -99.90      -99.90      -99.90      -99.90      -99.90      -99.90      -99.90      -99.90      -99.90      -99.90    
  17   -99.90      -99.90      -99.90      -99.90      -99.90      -99.90      -99.90      -99.90      -99.90      -99.90    
       -99.90      -99.90      -99.90      -99.90      -99.90      -99.90      -99.90      -99.90      -99.90      -99.90    
       -99.90      -99.90      -99.90      -99.90      -99.90      -99.90      -99.90      -99.90      -99.90      -99.90    
       -99.90      -99.90      -99.90      -99.90      -99.90      -99.90      -99.90      -99.90      -99.90      -99.90    
  18   -99.90      -99.90      -99.90      -99.90      -99.90      -99.90      -99.90      -99.90      -99.90      -99.90    
       -99.90      -99.90      -99.90      -99.90      -99.90      -99.90      -99.90      -99.90      -99.90      -99.90    
       -99.90      -99.90      -99.90      -99.90      -99.90      -99.90      -99.90      -99.90      -99.90      -99.90    
       -99.90      -99.90      -99.90      -99.90      -99.90      -99.90      -99.90      -99.90      -99.90      -99.90    
  19   -99.90      -99.90      -99.90      -99.90      -99.90      -99.90      -99.90      -99.90      -99.90      -99.90    
       -99.90      -99.90      -99.90      -99.90      -99.90      -99.90      -99.90      -99.90      -99.90      -99.90    
       -99.90      -99.90      -99.90      -99.90      -99.90      -99.90      -99.90      -99.90      -99.90      -99.90    
       -99.90      -99.90      -99.90      -99.90      -99.90      -99.90      -99.90      -99.90      -99.90      -99.90    
  20   -99.90      -99.90      -99.90      -99.90      -99.90      -99.90      -99.90      -99.90      -99.90      -99.90    
       -99.90      -99.90      -99.90      -99.90      -99.90      -99.90      -99.90      -99.90      -99.90      -99.90    
       -99.90      -99.90      -99.90      -99.90      -99.90      -99.90      -99.90      -99.90      -99.90      -99.90    
       -99.90      -99.90      -99.90      -99.90      -99.90      -99.90      -99.90      -99.90      -99.90      -99.90    
  21   -99.90      -99.90      -99.90      -99.90      -99.90      -99.90      -99.90      -99.90      -99.90      -99.90    
       -99.90      -99.90      -99.90      -99.90      -99.90      -99.90      -99.90      -99.90      -99.90      -99.90    
       -99.90      -99.90      -99.90      -99.90      -99.90      -99.90      -99.90      -99.90      -99.90      -99.90    
       -99.90      -99.90      -99.90      -99.90      -99.90      -99.90      -99.90      -99.90      -99.90      -99.90    
  22   -99.90      -99.90      -99.90      -99.90      -99.90      -99.90      -99.90      -99.90      -99.90      -99.90    
       -99.90      -99.90      -99.90      -99.90      -99.90      -99.90      -99.90      -99.90      -99.90      -99.90    
       -99.90      -99.90      -99.90      -99.90      -99.90      -99.90      -99.90      -99.90      -99.90      -99.90    
       -99.90      -99.90      -99.90      -99.90      -99.90      -99.90      -99.90      -99.90      -99.90      -99.90    
  23   -99.90      -99.90      -99.90      -99.90      -99.90      -99.90      -99.90      -99.90      -99.90      -99.90    
       -99.90      -99.90      -99.90      -99.90      -99.90      -99.90      -99.90      -99.90      -99.90      -99.90    
       -99.90      -99.90      -99.90      -99.90      -99.90      -99.90      -99.90      -99.90      -99.90      -99.90    
       -99.90      -99.90      -99.90      -99.90      -99.90      -99.90      -99.90      -99.90      -99.90      -99.90    
  24   -99.90      -99.90      -99.90      -99.90      -99.90      -99.90      -99.90      -99.90      -99.90      -99.90    
       -99.90      -99.90      -99.90      -99.90      -99.90      -99.90      -99.90      -99.90      -99.90      -99.90    
       -99.90      -99.90      -99.90      -99.90      -99.90      -99.90      -99.90      -99.90      -99.90      -99.90    
       -99.90      -99.90      -99.90      -99.90      -99.90      -99.90      -99.90      -99.90      -99.90      -99.90    
  25   -99.90      -99.90      -99.90      -99.90      -99.90      -99.90      -99.90      -99.90      -99.90      -99.90    
       -99.90      -99.90      -99.90      -99.90      -99.90      -99.90      -99.90      -99.90      -99.90      -99.90    
       -99.90      -99.90      -99.90      -99.90      -99.90      -99.90      -99.90      -99.90      -99.90      -99.90    
       -99.90      -99.90      -99.90      -99.90      -99.90      -99.90      -99.90      -99.90      -99.90      -99.90    
  26   -99.90      -99.90      -99.90      -99.90      -99.90      -99.90      -99.90      -99.90      -99.90      -99.90    
       -99.90      -99.90      -99.90      -99.90      -99.90      -99.90      -99.90      -99.90      -99.90      -99.90    
       -99.90      -99.90      -99.90      -99.90      -99.90      -99.90      -99.90      -99.90      -99.90      -99.90    
       -99.90      -99.90      -99.90      -99.90      -99.90      -99.90      -99.90      -99.90      -99.90      -99.90    
  27   -99.90      -99.90      -99.90      -99.90      -99.90      -99.90      -99.90      -99.90      -99.90      -99.90    
       -99.90      -99.90      -99.90      -99.90      -99.90      -99.90      -99.90      -99.90      -99.90      -99.90    
       -99.90      -99.90      -99.90      -99.90      -99.90      -99.90      -99.90      -99.90      -99.90      -99.90    
       -99.90      -99.90      -99.90      -99.90      -99.90      -99.90      -99.90      -99.90      -99.90      -99.90    
  28   -99.90      -99.90      -99.90      -99.90      -99.90      -99.90      -99.90      -99.90      -99.90      -99.90    
       -99.90      -99.90      -99.90      -99.90      -99.90      -99.90      -99.90      -99.90      -99.90      -99.90    
       -99.90      -99.90      -99.90      -99.90      -99.90      -99.90      -99.90      -99.90      -99.90      -99.90    
       -99.90      -99.90      -99.90      -99.90      -99.90      -99.90      -99.90      -99.90      -99.90      -99.90    
  29   -99.90      -99.90      -99.90      -99.90      -99.90      -99.90      -99.90      -99.90      -99.90      -99.90    
       -99.90      -99.90      -99.90      -99.90      -99.90      -99.90      -99.90      -99.90      -99.90      -99.90    
       -99.90      -99.90      -99.90      -99.90      -99.90      -99.90      -99.90      -99.90      -99.90      -99.90    
       -99.90      -99.90      -99.90      -99.90      -99.90      -99.90      -99.90      -99.90      -99.90      -99.90    
  30   -99.90      -99.90      -99.90      -99.90      -99.90      -99.90      -99.90      -99.90      -99.90      -99.90    
       -99.90      -99.90      -99.90      -99.90      -99.90      -99.90      -99.90      -99.90      -99.90      -99.90    
       -99.90      -99.90      -99.90      -99.90      -99.90      -99.90      -99.90      -99.90      -99.90      -99.90    
       -99.90      -99.90      -99.90      -99.90      -99.90      -99.90      -99.90      -99.90      -99.90      -99.90    
  31   -99.90      -99.90      -99.90      -99.90      -99.90      -99.90      -99.90      -99.90      -99.90      -99.90    
       -99.90      -99.90      -99.90      -99.90      -99.90      -99.90      -99.90      -99.90      -99.90      -99.90    
       -99.90      -99.90      -99.90      -99.90      -99.90      -99.90      -99.90      -99.90      -99.90      -99.90    
       -99.90      -99.90      -99.90      -99.90      -99.90      -99.90      -99.90      -99.90      -99.90      -99.90    
  32   -99.90      -99.90      -99.90      -99.90      -99.90      -99.90      -99.90      -99.90      -99.90      -99.90    
       -99.90      -99.90      -99.90      -99.90      -99.90      -99.90      -99.90      -99.90      -99.90      -99.90    
       -99.90      -99.90      -99.90      -99.90      -99.90      -99.90      -99.90      -99.90      -99.90      -99.90    
       -99.90      -99.90      -99.90      -99.90      -99.90      -99.90      -99.90      -99.90      -99.90      -99.90    
  33   -99.90      -99.90      -99.90      -99.90      -99.90      -99.90      -99.90      -99.90      -99.90      -99.90    
       -99.90      -99.90      -99.90      -99.90      -99.90      -99.90      -99.90      -99.90      -99.90      -99.90    
       -99.90      -99.90      -99.90      -99.90      -99.90      -99.90      -99.90      -99.90      -99.90      -99.90    
       -99.90      -99.90      -99.90      -99.90      -99.90      -99.90      -99.90      -99.90      -99.90      -99.90    
  34   -99.90      -99.90      -99.90      -99.90      -99.90      -99.90      -99.90      -99.90      -99.90      -99.90    
       -99.90      -99.90      -99.90      -99.90      -99.90      -99.90      -99.90      -99.90      -99.90      -99.90    
       -99.90      -99.90      -99.90      -99.90      -99.90      -99.90      -99.90      -99.90      -99.90      -99.90    
       -99.90      -99.90      -99.90      -99.90      -99.90      -99.90      -99.90      -99.90      -99.90      -99.90    
  35   -99.90      -99.90      -99.90      -99.90      -99.90      -99.90      -99.90      -99.90      -99.90      -99.90    
       -99.90      -99.90      -99.90      -99.90      -99.90      -99.90      -99.90      -99.90      -99.90      -99.90    
       -99.90      -99.90      -99.90      -99.90      -99.90      -99.90      -99.90      -99.90      -99.90      -99.90    
       -99.90      -99.90      -99.90      -99.90      -99.90      -99.90      -99.90      -99.90      -99.90      -99.90    
  36   -99.90      -99.90      -99.90      -99.90      -99.90      -99.90      -99.90      -99.90      -99.90      -99.90    
       -99.90      -99.90      -99.90      -99.90      -99.90      -99.90      -99.90      -99.90      -99.90      -99.90    
       -99.90      -99.90      -99.90      -99.90      -99.90      -99.90      -99.90      -99.90      -99.90      -99.90    
       -99.90      -99.90      -99.90      -99.90      -99.90      -99.90      -99.90      -99.90      -99.90      -99.90    
  37   -99.90      -99.90      -99.90      -99.90      -99.90      -99.90      -99.90      -99.90      -99.90      -99.90    
       -99.90      -99.90      -99.90      -99.90      -99.90      -99.90      -99.90      -99.90      -99.90      -99.90    
       -99.90      -99.90      -99.90      -99.90      -99.90      -99.90      -99.90      -99.90      -99.90      -99.90    
       -99.90      -99.90      -99.90      -99.90      -99.90      -99.90      -99.90      -99.90      -99.90      -99.90    
  38   -99.90      -99.90      -99.90      -99.90      -99.90      -99.90      -99.90      -99.90      -99.90      -99.90    
       -99.90      -99.90      -99.90      -99.90      -99.90      -99.90      -99.90      -99.90      -99.90      -99.90    
       -99.90      -99.90      -99.90      -99.90      -99.90      -99.90      -99.90      -99.90      -99.90      -99.90    
       -99.90      -99.90      -99.90      -99.90      -99.90      -99.90      -99.90      -99.90      -99.90      -99.90    
  39   -99.90      -99.90      -99.90      -99.90      -99.90      -99.90      -99.90      -99.90      -99.90      -99.90    
       -99.90      -99.90      -99.90      -99.90      -99.90      -99.90      -99.90      -99.90      -99.90      -99.90    
       -99.90      -99.90      -99.90      -99.90      -99.90      -99.90      -99.90      -99.90      -99.90      -99.90    
       -99.90      -99.90      -99.90      -99.90      -99.90      -99.90      -99.90      -99.90      -99.90      -99.90    
  40   -99.90      -99.90      -99.90      -99.90      -99.90      -99.90      -99.90      -99.90      -99.90      -99.90    
       -99.90      -99.90      -99.90      -99.90      -99.90      -99.90      -99.90      -99.90      -99.90      -99.90    
       -99.90      -99.90      -99.90      -99.90      -99.90      -99.90      -99.90      -99.90      -99.90      -99.90    
       -99.90      -99.90      -99.90      -99.90      -99.90      -99.90      -99.90      -99.90      -99.90      -99.90    
1
              HEAD IN LAYER 7 AT END OF TIME STEP 2 IN STRESS PERIOD 3
  ---------------------------------------------------------------------------

            1           2           3           4           5           6           7           8           9          10
           11          12          13          14          15          16          17          18          19          20
           21          22          23          24          25          26          27          28          29          30
           31          32          33          34          35          36          37          38          39          40
 ........................................................................................................................
   1    47.22       45.54       41.28       38.09       35.64      -99.90      -99.90      -99.90      -99.90      -99.90    
       -99.90      -99.90      -99.90      -99.90      -99.90      -99.90      -99.90      -99.90      -99.90      -99.90    
       -99.90      -99.90      -99.90      -99.90      -99.90      -99.90      -99.90      -99.90      -99.90      -99.90    
       -99.90      -99.90      -99.90      -99.90      -99.90      -99.90      -99.90      -99.90      -99.90      -99.90    
   2    45.54       44.07       40.19       37.37       35.18      -99.90      -99.90      -99.90      -99.90      -99.90    
       -99.90      -99.90      -99.90      -99.90      -99.90      -99.90      -99.90      -99.90      -99.90      -99.90    
       -99.90      -99.90      -99.90      -99.90      -99.90      -99.90      -99.90      -99.90      -99.90      -99.90    
       -99.90      -99.90      -99.90      -99.90      -99.90      -99.90      -99.90      -99.90      -99.90      -99.90    
   3    41.28       40.19       38.10       36.11      -99.90      -99.90      -99.90      -99.90      -99.90      -99.90    
       -99.90      -99.90      -99.90      -99.90      -99.90      -99.90      -99.90      -99.90      -99.90      -99.90    
       -99.90      -99.90      -99.90      -99.90      -99.90      -99.90      -99.90      -99.90      -99.90      -99.90    
       -99.90      -99.90      -99.90      -99.90      -99.90      -99.90      -99.90      -99.90      -99.90      -99.90    
   4    38.09       37.37       36.11      -99.90      -99.90      -99.90      -99.90      -99.90      -99.90      -99.90    
       -99.90      -99.90      -99.90      -99.90      -99.90      -99.90      -99.90      -99.90      -99.90      -99.90    
       -99.90      -99.90      -99.90      -99.90      -99.90      -99.90      -99.90      -99.90      -99.90      -99.90    
       -99.90      -99.90      -99.90      -99.90      -99.90      -99.90      -99.90      -99.90      -99.90      -99.90    
   5    35.64       35.18      -99.90      -99.90      -99.90      -99.90      -99.90      -99.90      -99.90      -99.90    
       -99.90      -99.90      -99.90      -99.90      -99.90      -99.90      -99.90      -99.90      -99.90      -99.90    
       -99.90      -99.90      -99.90      -99.90      -99.90      -99.90      -99.90      -99.90      -99.90      -99.90    
       -99.90      -99.90      -99.90      -99.90      -99.90      -99.90      -99.90      -99.90      -99.90      -99.90    
   6   -99.90      -99.90      -99.90      -99.90      -99.90      -99.90      -99.90      -99.90      -99.90      -99.90    
       -99.90      -99.90      -99.90      -99.90      -99.90      -99.90      -99.90      -99.90      -99.90      -99.90    
       -99.90      -99.90      -99.90      -99.90      -99.90      -99.90      -99.90      -99.90      -99.90      -99.90    
       -99.90      -99.90      -99.90      -99.90      -99.90      -99.90      -99.90      -99.90      -99.90      -99.90    
   7   -99.90      -99.90      -99.90      -99.90      -99.90      -99.90      -99.90      -99.90      -99.90      -99.90    
       -99.90      -99.90      -99.90      -99.90      -99.90      -99.90      -99.90      -99.90      -99.90      -99.90    
       -99.90      -99.90      -99.90      -99.90      -99.90      -99.90      -99.90      -99.90      -99.90      -99.90    
       -99.90      -99.90      -99.90      -99.90      -99.90      -99.90      -99.90      -99.90      -99.90      -99.90    
   8   -99.90      -99.90      -99.90      -99.90      -99.90      -99.90      -99.90      -99.90      -99.90      -99.90    
       -99.90      -99.90      -99.90      -99.90      -99.90      -99.90      -99.90      -99.90      -99.90      -99.90    
       -99.90      -99.90      -99.90      -99.90      -99.90      -99.90      -99.90      -99.90      -99.90      -99.90    
       -99.90      -99.90      -99.90      -99.90      -99.90      -99.90      -99.90      -99.90      -99.90      -99.90    
   9   -99.90      -99.90      -99.90      -99.90      -99.90      -99.90      -99.90      -99.90      -99.90      -99.90    
       -99.90      -99.90      -99.90      -99.90      -99.90      -99.90      -99.90      -99.90      -99.90      -99.90    
       -99.90      -99.90      -99.90      -99.90      -99.90      -99.90      -99.90      -99.90      -99.90      -99.90    
       -99.90      -99.90      -99.90      -99.90      -99.90      -99.90      -99.90      -99.90      -99.90      -99.90    
  10   -99.90      -99.90      -99.90      -99.90      -99.90      -99.90      -99.90      -99.90      -99.90      -99.90    
       -99.90      -99.90      -99.90      -99.90      -99.90      -99.90      -99.90      -99.90      -99.90      -99.90    
       -99.90      -99.90      -99.90      -99.90      -99.90      -99.90      -99.90      -99.90      -99.90      -99.90    
       -99.90      -99.90      -99.90      -99.90      -99.90      -99.90      -99.90      -99.90      -99.90      -99.90    
  11   -99.90      -99.90      -99.90      -99.90      -99.90      -99.90      -99.90      -99.90      -99.90      -99.90    
       -99.90      -99.90      -99.90      -99.90      -99.90      -99.90      -99.90      -99.90      -99.90      -99.90    
       -99.90      -99.90      -99.90      -99.90      -99.90      -99.90      -99.90      -99.90      -99.90      -99.90    
       -99.90      -99.90      -99.90      -99.90      -99.90      -99.90      -99.90      -99.90      -99.90      -99.90    
  12   -99.90      -99.90      -99.90      -99.90      -99.90      -99.90      -99.90      -99.90      -99.90      -99.90    
       -99.90      -99.90      -99.90      -99.90      -99.90      -99.90      -99.90      -99.90      -99.90      -99.90    
       -99.90      -99.90      -99.90      -99.90      -99.90      -99.90      -99.90      -99.90      -99.90      -99.90    
       -99.90      -99.90      -99.90      -99.90      -99.90      -99.90      -99.90      -99.90      -99.90      -99.90    
  13   -99.90      -99.90      -99.90      -99.90      -99.90      -99.90      -99.90      -99.90      -99.90      -99.90    
       -99.90      -99.90      -99.90      -99.90      -99.90      -99.90      -99.90      -99.90      -99.90      -99.90    
       -99.90      -99.90      -99.90      -99.90      -99.90      -99.90      -99.90      -99.90      -99.90      -99.90    
       -99.90      -99.90      -99.90      -99.90      -99.90      -99.90      -99.90      -99.90      -99.90      -99.90    
  14   -99.90      -99.90      -99.90      -99.90      -99.90      -99.90      -99.90      -99.90      -99.90      -99.90    
       -99.90      -99.90      -99.90      -99.90      -99.90      -99.90      -99.90      -99.90      -99.90      -99.90    
       -99.90      -99.90      -99.90      -99.90      -99.90      -99.90      -99.90      -99.90      -99.90      -99.90    
       -99.90      -99.90      -99.90      -99.90      -99.90      -99.90      -99.90      -99.90      -99.90      -99.90    
  15   -99.90      -99.90      -99.90      -99.90      -99.90      -99.90      -99.90      -99.90      -99.90      -99.90    
       -99.90      -99.90      -99.90      -99.90      -99.90      -99.90      -99.90      -99.90      -99.90      -99.90    
       -99.90      -99.90      -99.90      -99.90      -99.90      -99.90      -99.90      -99.90      -99.90      -99.90    
       -99.90      -99.90      -99.90      -99.90      -99.90      -99.90      -99.90      -99.90      -99.90      -99.90    
  16   -99.90      -99.90      -99.90      -99.90      -99.90      -99.90      -99.90      -99.90      -99.90      -99.90    
       -99.90      -99.90      -99.90      -99.90      -99.90      -99.90      -99.90      -99.90      -99.90      -99.90    
       -99.90      -99.90      -99.90      -99.90      -99.90      -99.90      -99.90      -99.90      -99.90      -99.90    
       -99.90      -99.90      -99.90      -99.90      -99.90      -99.90      -99.90      -99.90      -99.90      -99.90    
  17   -99.90      -99.90      -99.90      -99.90      -99.90      -99.90      -99.90      -99.90      -99.90      -99.90    
       -99.90      -99.90      -99.90      -99.90      -99.90      -99.90      -99.90      -99.90      -99.90      -99.90    
       -99.90      -99.90      -99.90      -99.90      -99.90      -99.90      -99.90      -99.90      -99.90      -99.90    
       -99.90      -99.90      -99.90      -99.90      -99.90      -99.90      -99.90      -99.90      -99.90      -99.90    
  18   -99.90      -99.90      -99.90      -99.90      -99.90      -99.90      -99.90      -99.90      -99.90      -99.90    
       -99.90      -99.90      -99.90      -99.90      -99.90      -99.90      -99.90      -99.90      -99.90      -99.90    
       -99.90      -99.90      -99.90      -99.90      -99.90      -99.90      -99.90      -99.90      -99.90      -99.90    
       -99.90      -99.90      -99.90      -99.90      -99.90      -99.90      -99.90      -99.90      -99.90      -99.90    
  19   -99.90      -99.90      -99.90      -99.90      -99.90      -99.90      -99.90      -99.90      -99.90      -99.90    
       -99.90      -99.90      -99.90      -99.90      -99.90      -99.90      -99.90      -99.90      -99.90      -99.90    
       -99.90      -99.90      -99.90      -99.90      -99.90      -99.90      -99.90      -99.90      -99.90      -99.90    
       -99.90      -99.90      -99.90      -99.90      -99.90      -99.90      -99.90      -99.90      -99.90      -99.90    
  20   -99.90      -99.90      -99.90      -99.90      -99.90      -99.90      -99.90      -99.90      -99.90      -99.90    
       -99.90      -99.90      -99.90      -99.90      -99.90      -99.90      -99.90      -99.90      -99.90      -99.90    
       -99.90      -99.90      -99.90      -99.90      -99.90      -99.90      -99.90      -99.90      -99.90      -99.90    
       -99.90      -99.90      -99.90      -99.90      -99.90      -99.90      -99.90      -99.90      -99.90      -99.90    
  21   -99.90      -99.90      -99.90      -99.90      -99.90      -99.90      -99.90      -99.90      -99.90      -99.90    
       -99.90      -99.90      -99.90      -99.90      -99.90      -99.90      -99.90      -99.90      -99.90      -99.90    
       -99.90      -99.90      -99.90      -99.90      -99.90      -99.90      -99.90      -99.90      -99.90      -99.90    
       -99.90      -99.90      -99.90      -99.90      -99.90      -99.90      -99.90      -99.90      -99.90      -99.90    
  22   -99.90      -99.90      -99.90      -99.90      -99.90      -99.90      -99.90      -99.90      -99.90      -99.90    
       -99.90      -99.90      -99.90      -99.90      -99.90      -99.90      -99.90      -99.90      -99.90      -99.90    
       -99.90      -99.90      -99.90      -99.90      -99.90      -99.90      -99.90      -99.90      -99.90      -99.90    
       -99.90      -99.90      -99.90      -99.90      -99.90      -99.90      -99.90      -99.90      -99.90      -99.90    
  23   -99.90      -99.90      -99.90      -99.90      -99.90      -99.90      -99.90      -99.90      -99.90      -99.90    
       -99.90      -99.90      -99.90      -99.90      -99.90      -99.90      -99.90      -99.90      -99.90      -99.90    
       -99.90      -99.90      -99.90      -99.90      -99.90      -99.90      -99.90      -99.90      -99.90      -99.90    
       -99.90      -99.90      -99.90      -99.90      -99.90      -99.90      -99.90      -99.90      -99.90      -99.90    
  24   -99.90      -99.90      -99.90      -99.90      -99.90      -99.90      -99.90      -99.90      -99.90      -99.90    
       -99.90      -99.90      -99.90      -99.90      -99.90      -99.90      -99.90      -99.90      -99.90      -99.90    
       -99.90      -99.90      -99.90      -99.90      -99.90      -99.90      -99.90      -99.90      -99.90      -99.90    
       -99.90      -99.90      -99.90      -99.90      -99.90      -99.90      -99.90      -99.90      -99.90      -99.90    
  25   -99.90      -99.90      -99.90      -99.90      -99.90      -99.90      -99.90      -99.90      -99.90      -99.90    
       -99.90      -99.90      -99.90      -99.90      -99.90      -99.90      -99.90      -99.90      -99.90      -99.90    
       -99.90      -99.90      -99.90      -99.90      -99.90      -99.90      -99.90      -99.90      -99.90      -99.90    
       -99.90      -99.90      -99.90      -99.90      -99.90      -99.90      -99.90      -99.90      -99.90      -99.90    
  26   -99.90      -99.90      -99.90      -99.90      -99.90      -99.90      -99.90      -99.90      -99.90      -99.90    
       -99.90      -99.90      -99.90      -99.90      -99.90      -99.90      -99.90      -99.90      -99.90      -99.90    
       -99.90      -99.90      -99.90      -99.90      -99.90      -99.90      -99.90      -99.90      -99.90      -99.90    
       -99.90      -99.90      -99.90      -99.90      -99.90      -99.90      -99.90      -99.90      -99.90      -99.90    
  27   -99.90      -99.90      -99.90      -99.90      -99.90      -99.90      -99.90      -99.90      -99.90      -99.90    
       -99.90      -99.90      -99.90      -99.90      -99.90      -99.90      -99.90      -99.90      -99.90      -99.90    
       -99.90      -99.90      -99.90      -99.90      -99.90      -99.90      -99.90      -99.90      -99.90      -99.90    
       -99.90      -99.90      -99.90      -99.90      -99.90      -99.90      -99.90      -99.90      -99.90      -99.90    
  28   -99.90      -99.90      -99.90      -99.90      -99.90      -99.90      -99.90      -99.90      -99.90      -99.90    
       -99.90      -99.90      -99.90      -99.90      -99.90      -99.90      -99.90      -99.90      -99.90      -99.90    
       -99.90      -99.90      -99.90      -99.90      -99.90      -99.90      -99.90      -99.90      -99.90      -99.90    
       -99.90      -99.90      -99.90      -99.90      -99.90      -99.90      -99.90      -99.90      -99.90      -99.90    
  29   -99.90      -99.90      -99.90      -99.90      -99.90      -99.90      -99.90      -99.90      -99.90      -99.90    
       -99.90      -99.90      -99.90      -99.90      -99.90      -99.90      -99.90      -99.90      -99.90      -99.90    
       -99.90      -99.90      -99.90      -99.90      -99.90      -99.90      -99.90      -99.90      -99.90      -99.90    
       -99.90      -99.90      -99.90      -99.90      -99.90      -99.90      -99.90      -99.90      -99.90      -99.90    
  30   -99.90      -99.90      -99.90      -99.90      -99.90      -99.90      -99.90      -99.90      -99.90      -99.90    
       -99.90      -99.90      -99.90      -99.90      -99.90      -99.90      -99.90      -99.90      -99.90      -99.90    
       -99.90      -99.90      -99.90      -99.90      -99.90      -99.90      -99.90      -99.90      -99.90      -99.90    
       -99.90      -99.90      -99.90      -99.90      -99.90      -99.90      -99.90      -99.90      -99.90      -99.90    
  31   -99.90      -99.90      -99.90      -99.90      -99.90      -99.90      -99.90      -99.90      -99.90      -99.90    
       -99.90      -99.90      -99.90      -99.90      -99.90      -99.90      -99.90      -99.90      -99.90      -99.90    
       -99.90      -99.90      -99.90      -99.90      -99.90      -99.90      -99.90      -99.90      -99.90      -99.90    
       -99.90      -99.90      -99.90      -99.90      -99.90      -99.90      -99.90      -99.90      -99.90      -99.90    
  32   -99.90      -99.90      -99.90      -99.90      -99.90      -99.90      -99.90      -99.90      -99.90      -99.90    
       -99.90      -99.90      -99.90      -99.90      -99.90      -99.90      -99.90      -99.90      -99.90      -99.90    
       -99.90      -99.90      -99.90      -99.90      -99.90      -99.90      -99.90      -99.90      -99.90      -99.90    
       -99.90      -99.90      -99.90      -99.90      -99.90      -99.90      -99.90      -99.90      -99.90      -99.90    
  33   -99.90      -99.90      -99.90      -99.90      -99.90      -99.90      -99.90      -99.90      -99.90      -99.90    
       -99.90      -99.90      -99.90      -99.90      -99.90      -99.90      -99.90      -99.90      -99.90      -99.90    
       -99.90      -99.90      -99.90      -99.90      -99.90      -99.90      -99.90      -99.90      -99.90      -99.90    
       -99.90      -99.90      -99.90      -99.90      -99.90      -99.90      -99.90      -99.90      -99.90      -99.90    
  34   -99.90      -99.90      -99.90      -99.90      -99.90      -99.90      -99.90      -99.90      -99.90      -99.90    
       -99.90      -99.90      -99.90      -99.90      -99.90      -99.90      -99.90      -99.90      -99.90      -99.90    
       -99.90      -99.90      -99.90      -99.90      -99.90      -99.90      -99.90      -99.90      -99.90      -99.90    
       -99.90      -99.90      -99.90      -99.90      -99.90      -99.90      -99.90      -99.90      -99.90      -99.90    
  35   -99.90      -99.90      -99.90      -99.90      -99.90      -99.90      -99.90      -99.90      -99.90      -99.90    
       -99.90      -99.90      -99.90      -99.90      -99.90      -99.90      -99.90      -99.90      -99.90      -99.90    
       -99.90      -99.90      -99.90      -99.90      -99.90      -99.90      -99.90      -99.90      -99.90      -99.90    
       -99.90      -99.90      -99.90      -99.90      -99.90      -99.90      -99.90      -99.90      -99.90      -99.90    
  36   -99.90      -99.90      -99.90      -99.90      -99.90      -99.90      -99.90      -99.90      -99.90      -99.90    
       -99.90      -99.90      -99.90      -99.90      -99.90      -99.90      -99.90      -99.90      -99.90      -99.90    
       -99.90      -99.90      -99.90      -99.90      -99.90      -99.90      -99.90      -99.90      -99.90      -99.90    
       -99.90      -99.90      -99.90      -99.90      -99.90      -99.90      -99.90      -99.90      -99.90      -99.90    
  37   -99.90      -99.90      -99.90      -99.90      -99.90      -99.90      -99.90      -99.90      -99.90      -99.90    
       -99.90      -99.90      -99.90      -99.90      -99.90      -99.90      -99.90      -99.90      -99.90      -99.90    
       -99.90      -99.90      -99.90      -99.90      -99.90      -99.90      -99.90      -99.90      -99.90      -99.90    
       -99.90      -99.90      -99.90      -99.90      -99.90      -99.90      -99.90      -99.90      -99.90      -99.90    
  38   -99.90      -99.90      -99.90      -99.90      -99.90      -99.90      -99.90      -99.90      -99.90      -99.90    
       -99.90      -99.90      -99.90      -99.90      -99.90      -99.90      -99.90      -99.90      -99.90      -99.90    
       -99.90      -99.90      -99.90      -99.90      -99.90      -99.90      -99.90      -99.90      -99.90      -99.90    
       -99.90      -99.90      -99.90      -99.90      -99.90      -99.90      -99.90      -99.90      -99.90      -99.90    
  39   -99.90      -99.90      -99.90      -99.90      -99.90      -99.90      -99.90      -99.90      -99.90      -99.90    
       -99.90      -99.90      -99.90      -99.90      -99.90      -99.90      -99.90      -99.90      -99.90      -99.90    
       -99.90      -99.90      -99.90      -99.90      -99.90      -99.90      -99.90      -99.90      -99.90      -99.90    
       -99.90      -99.90      -99.90      -99.90      -99.90      -99.90      -99.90      -99.90      -99.90      -99.90    
  40   -99.90      -99.90      -99.90      -99.90      -99.90      -99.90      -99.90      -99.90      -99.90      -99.90    
       -99.90      -99.90      -99.90      -99.90      -99.90      -99.90      -99.90      -99.90      -99.90      -99.90    
       -99.90      -99.90      -99.90      -99.90      -99.90      -99.90      -99.90      -99.90      -99.90      -99.90    
       -99.90      -99.90      -99.90      -99.90      -99.90      -99.90      -99.90      -99.90      -99.90      -99.90    
1
              HEAD IN LAYER 8 AT END OF TIME STEP 2 IN STRESS PERIOD 3
  ---------------------------------------------------------------------------

            1           2           3           4           5           6           7           8           9          10
           11          12          13          14          15          16          17          18          19          20
           21          22          23          24          25          26          27          28          29          30
           31          32          33          34          35          36          37          38          39          40
 ........................................................................................................................
   1    46.54       44.90       41.11       38.04       35.63       33.67       32.06       30.72      -99.90      -99.90    
       -99.90      -99.90      -99.90      -99.90      -99.90      -99.90      -99.90      -99.90      -99.90      -99.90    
       -99.90      -99.90      -99.90      -99.90      -99.90      -99.90      -99.90      -99.90      -99.90      -99.90    
       -99.90      -99.90      -99.90      -99.90      -99.90      -99.90      -99.90      -99.90      -99.90      -99.90    
   2    44.90       43.45       40.05       37.34       35.15       33.35       31.83       30.55      -99.90      -99.90    
       -99.90      -99.90      -99.90      -99.90      -99.90      -99.90      -99.90      -99.90      -99.90      -99.90    
       -99.90      -99.90      -99.90      -99.90      -99.90      -99.90      -99.90      -99.90      -99.90      -99.90    
       -99.90      -99.90      -99.90      -99.90      -99.90      -99.90      -99.90      -99.90      -99.90      -99.90    
   3    41.11       40.05       38.06       36.10       34.32       32.76       31.40       30.25      -99.90      -99.90    
       -99.90      -99.90      -99.90      -99.90      -99.90      -99.90      -99.90      -99.90      -99.90      -99.90    
       -99.90      -99.90      -99.90      -99.90      -99.90      -99.90      -99.90      -99.90      -99.90      -99.90    
       -99.90      -99.90      -99.90      -99.90      -99.90      -99.90      -99.90      -99.90      -99.90      -99.90    
   4    38.04       37.34       36.10       34.69       33.30       32.01       30.85      -99.90      -99.90      -99.90    
       -99.90      -99.90      -99.90      -99.90      -99.90      -99.90      -99.90      -99.90      -99.90      -99.90    
       -99.90      -99.90      -99.90      -99.90      -99.90      -99.90      -99.90      -99.90      -99.90      -99.90    
       -99.90      -99.90      -99.90      -99.90      -99.90      -99.90      -99.90      -99.90      -99.90      -99.90    
   5    35.63       35.15       34.32       33.30       32.23       31.19       30.22      -99.90      -99.90      -99.90    
       -99.90      -99.90      -99.90      -99.90      -99.90      -99.90      -99.90      -99.90      -99.90      -99.90    
       -99.90      -99.90      -99.90      -99.90      -99.90      -99.90      -99.90      -99.90      -99.90      -99.90    
       -99.90      -99.90      -99.90      -99.90      -99.90      -99.90      -99.90      -99.90      -99.90      -99.90    
   6    33.67       33.35       32.76       32.01       31.19       30.36      -99.90      -99.90      -99.90      -99.90    
       -99.90      -99.90      -99.90      -99.90      -99.90      -99.90      -99.90      -99.90      -99.90      -99.90    
       -99.90      -99.90      -99.90      -99.90      -99.90      -99.90      -99.90      -99.90      -99.90      -99.90    
       -99.90      -99.90      -99.90      -99.90      -99.90      -99.90      -99.90      -99.90      -99.90      -99.90    
   7    32.06       31.83       31.40       30.85       30.22      -99.90      -99.90      -99.90      -99.90      -99.90    
       -99.90      -99.90      -99.90      -99.90      -99.90      -99.90      -99.90      -99.90      -99.90      -99.90    
       -99.90      -99.90      -99.90      -99.90      -99.90      -99.90      -99.90      -99.90      -99.90      -99.90    
       -99.90      -99.90      -99.90      -99.90      -99.90      -99.90      -99.90      -99.90      -99.90      -99.90    
   8    30.72       30.55       30.25      -99.90      -99.90      -99.90      -99.90      -99.90      -99.90      -99.90    
       -99.90      -99.90      -99.90      -99.90      -99.90      -99.90      -99.90      -99.90      -99.90      -99.90    
       -99.90      -99.90      -99.90      -99.90      -99.90      -99.90      -99.90      -99.90      -99.90      -99.90    
       -99.90      -99.90      -99.90      -99.90      -99.90      -99.90      -99.90      -99.90      -99.90      -99.90    
   9   -99.90      -99.90      -99.90      -99.90      -99.90      -99.90      -99.90      -99.90      -99.90      -99.90    
       -99.90      -99.90      -99.90      -99.90      -99.90      -99.90      -99.90      -99.90      -99.90      -99.90    
       -99.90      -99.90      -99.90      -99.90      -99.90      -99.90      -99.90      -99.90      -99.90      -99.90    
       -99.90      -99.90      -99.90      -99.90      -99.90      -99.90      -99.90      -99.90      -99.90      -99.90    
  10   -99.90      -99.90      -99.90      -99.90      -99.90      -99.90      -99.90      -99.90      -99.90      -99.90    
       -99.90      -99.90      -99.90      -99.90      -99.90      -99.90      -99.90      -99.90      -99.90      -99.90    
       -99.90      -99.90      -99.90      -99.90      -99.90      -99.90      -99.90      -99.90      -99.90      -99.90    
       -99.90      -99.90      -99.90      -99.90      -99.90      -99.90      -99.90      -99.90      -99.90      -99.90    
  11   -99.90      -99.90      -99.90      -99.90      -99.90      -99.90      -99.90      -99.90      -99.90      -99.90    
       -99.90      -99.90      -99.90      -99.90      -99.90      -99.90      -99.90      -99.90      -99.90      -99.90    
       -99.90      -99.90      -99.90      -99.90      -99.90      -99.90      -99.90      -99.90      -99.90      -99.90    
       -99.90      -99.90      -99.90      -99.90      -99.90      -99.90      -99.90      -99.90      -99.90      -99.90    
  12   -99.90      -99.90      -99.90      -99.90      -99.90      -99.90      -99.90      -99.90      -99.90      -99.90    
       -99.90      -99.90      -99.90      -99.90      -99.90      -99.90      -99.90      -99.90      -99.90      -99.90    
       -99.90      -99.90      -99.90      -99.90      -99.90      -99.90      -99.90      -99.90      -99.90      -99.90    
       -99.90      -99.90      -99.90      -99.90      -99.90      -99.90      -99.90      -99.90      -99.90      -99.90    
  13   -99.90      -99.90      -99.90      -99.90      -99.90      -99.90      -99.90      -99.90      -99.90      -99.90    
       -99.90      -99.90      -99.90      -99.90      -99.90      -99.90      -99.90      -99.90      -99.90      -99.90    
       -99.90      -99.90      -99.90      -99.90      -99.90      -99.90      -99.90      -99.90      -99.90      -99.90    
       -99.90      -99.90      -99.90      -99.90      -99.90      -99.90      -99.90      -99.90      -99.90      -99.90    
  14   -99.90      -99.90      -99.90      -99.90      -99.90      -99.90      -99.90      -99.90      -99.90      -99.90    
       -99.90      -99.90      -99.90      -99.90      -99.90      -99.90      -99.90      -99.90      -99.90      -99.90    
       -99.90      -99.90      -99.90      -99.90      -99.90      -99.90      -99.90      -99.90      -99.90      -99.90    
       -99.90      -99.90      -99.90      -99.90      -99.90      -99.90      -99.90      -99.90      -99.90      -99.90    
  15   -99.90      -99.90      -99.90      -99.90      -99.90      -99.90      -99.90      -99.90      -99.90      -99.90    
       -99.90      -99.90      -99.90      -99.90      -99.90      -99.90      -99.90      -99.90      -99.90      -99.90    
       -99.90      -99.90      -99.90      -99.90      -99.90      -99.90      -99.90      -99.90      -99.90      -99.90    
       -99.90      -99.90      -99.90      -99.90      -99.90      -99.90      -99.90      -99.90      -99.90      -99.90    
  16   -99.90      -99.90      -99.90      -99.90      -99.90      -99.90      -99.90      -99.90      -99.90      -99.90    
       -99.90      -99.90      -99.90      -99.90      -99.90      -99.90      -99.90      -99.90      -99.90      -99.90    
       -99.90      -99.90      -99.90      -99.90      -99.90      -99.90      -99.90      -99.90      -99.90      -99.90    
       -99.90      -99.90      -99.90      -99.90      -99.90      -99.90      -99.90      -99.90      -99.90      -99.90    
  17   -99.90      -99.90      -99.90      -99.90      -99.90      -99.90      -99.90      -99.90      -99.90      -99.90    
       -99.90      -99.90      -99.90      -99.90      -99.90      -99.90      -99.90      -99.90      -99.90      -99.90    
       -99.90      -99.90      -99.90      -99.90      -99.90      -99.90      -99.90      -99.90      -99.90      -99.90    
       -99.90      -99.90      -99.90      -99.90      -99.90      -99.90      -99.90      -99.90      -99.90      -99.90    
  18   -99.90      -99.90      -99.90      -99.90      -99.90      -99.90      -99.90      -99.90      -99.90      -99.90    
       -99.90      -99.90      -99.90      -99.90      -99.90      -99.90      -99.90      -99.90      -99.90      -99.90    
       -99.90      -99.90      -99.90      -99.90      -99.90      -99.90      -99.90      -99.90      -99.90      -99.90    
       -99.90      -99.90      -99.90      -99.90      -99.90      -99.90      -99.90      -99.90      -99.90      -99.90    
  19   -99.90      -99.90      -99.90      -99.90      -99.90      -99.90      -99.90      -99.90      -99.90      -99.90    
       -99.90      -99.90      -99.90      -99.90      -99.90      -99.90      -99.90      -99.90      -99.90      -99.90    
       -99.90      -99.90      -99.90      -99.90      -99.90      -99.90      -99.90      -99.90      -99.90      -99.90    
       -99.90      -99.90      -99.90      -99.90      -99.90      -99.90      -99.90      -99.90      -99.90      -99.90    
  20   -99.90      -99.90      -99.90      -99.90      -99.90      -99.90      -99.90      -99.90      -99.90      -99.90    
       -99.90      -99.90      -99.90      -99.90      -99.90      -99.90      -99.90      -99.90      -99.90      -99.90    
       -99.90      -99.90      -99.90      -99.90      -99.90      -99.90      -99.90      -99.90      -99.90      -99.90    
       -99.90      -99.90      -99.90      -99.90      -99.90      -99.90      -99.90      -99.90      -99.90      -99.90    
  21   -99.90      -99.90      -99.90      -99.90      -99.90      -99.90      -99.90      -99.90      -99.90      -99.90    
       -99.90      -99.90      -99.90      -99.90      -99.90      -99.90      -99.90      -99.90      -99.90      -99.90    
       -99.90      -99.90      -99.90      -99.90      -99.90      -99.90      -99.90      -99.90      -99.90      -99.90    
       -99.90      -99.90      -99.90      -99.90      -99.90      -99.90      -99.90      -99.90      -99.90      -99.90    
  22   -99.90      -99.90      -99.90      -99.90      -99.90      -99.90      -99.90      -99.90      -99.90      -99.90    
       -99.90      -99.90      -99.90      -99.90      -99.90      -99.90      -99.90      -99.90      -99.90      -99.90    
       -99.90      -99.90      -99.90      -99.90      -99.90      -99.90      -99.90      -99.90      -99.90      -99.90    
       -99.90      -99.90      -99.90      -99.90      -99.90      -99.90      -99.90      -99.90      -99.90      -99.90    
  23   -99.90      -99.90      -99.90      -99.90      -99.90      -99.90      -99.90      -99.90      -99.90      -99.90    
       -99.90      -99.90      -99.90      -99.90      -99.90      -99.90      -99.90      -99.90      -99.90      -99.90    
       -99.90      -99.90      -99.90      -99.90      -99.90      -99.90      -99.90      -99.90      -99.90      -99.90    
       -99.90      -99.90      -99.90      -99.90      -99.90      -99.90      -99.90      -99.90      -99.90      -99.90    
  24   -99.90      -99.90      -99.90      -99.90      -99.90      -99.90      -99.90      -99.90      -99.90      -99.90    
       -99.90      -99.90      -99.90      -99.90      -99.90      -99.90      -99.90      -99.90      -99.90      -99.90    
       -99.90      -99.90      -99.90      -99.90      -99.90      -99.90      -99.90      -99.90      -99.90      -99.90    
       -99.90      -99.90      -99.90      -99.90      -99.90      -99.90      -99.90      -99.90      -99.90      -99.90    
  25   -99.90      -99.90      -99.90      -99.90      -99.90      -99.90      -99.90      -99.90      -99.90      -99.90    
       -99.90      -99.90      -99.90      -99.90      -99.90      -99.90      -99.90      -99.90      -99.90      -99.90    
       -99.90      -99.90      -99.90      -99.90      -99.90      -99.90      -99.90      -99.90      -99.90      -99.90    
       -99.90      -99.90      -99.90      -99.90      -99.90      -99.90      -99.90      -99.90      -99.90      -99.90    
  26   -99.90      -99.90      -99.90      -99.90      -99.90      -99.90      -99.90      -99.90      -99.90      -99.90    
       -99.90      -99.90      -99.90      -99.90      -99.90      -99.90      -99.90      -99.90      -99.90      -99.90    
       -99.90      -99.90      -99.90      -99.90      -99.90      -99.90      -99.90      -99.90      -99.90      -99.90    
       -99.90      -99.90      -99.90      -99.90      -99.90      -99.90      -99.90      -99.90      -99.90      -99.90    
  27   -99.90      -99.90      -99.90      -99.90      -99.90      -99.90      -99.90      -99.90      -99.90      -99.90    
       -99.90      -99.90      -99.90      -99.90      -99.90      -99.90      -99.90      -99.90      -99.90      -99.90    
       -99.90      -99.90      -99.90      -99.90      -99.90      -99.90      -99.90      -99.90      -99.90      -99.90    
       -99.90      -99.90      -99.90      -99.90      -99.90      -99.90      -99.90      -99.90      -99.90      -99.90    
  28   -99.90      -99.90      -99.90      -99.90      -99.90      -99.90      -99.90      -99.90      -99.90      -99.90    
       -99.90      -99.90      -99.90      -99.90      -99.90      -99.90      -99.90      -99.90      -99.90      -99.90    
       -99.90      -99.90      -99.90      -99.90      -99.90      -99.90      -99.90      -99.90      -99.90      -99.90    
       -99.90      -99.90      -99.90      -99.90      -99.90      -99.90      -99.90      -99.90      -99.90      -99.90    
  29   -99.90      -99.90      -99.90      -99.90      -99.90      -99.90      -99.90      -99.90      -99.90      -99.90    
       -99.90      -99.90      -99.90      -99.90      -99.90      -99.90      -99.90      -99.90      -99.90      -99.90    
       -99.90      -99.90      -99.90      -99.90      -99.90      -99.90      -99.90      -99.90      -99.90      -99.90    
       -99.90      -99.90      -99.90      -99.90      -99.90      -99.90      -99.90      -99.90      -99.90      -99.90    
  30   -99.90      -99.90      -99.90      -99.90      -99.90      -99.90      -99.90      -99.90      -99.90      -99.90    
       -99.90      -99.90      -99.90      -99.90      -99.90      -99.90      -99.90      -99.90      -99.90      -99.90    
       -99.90      -99.90      -99.90      -99.90      -99.90      -99.90      -99.90      -99.90      -99.90      -99.90    
       -99.90      -99.90      -99.90      -99.90      -99.90      -99.90      -99.90      -99.90      -99.90      -99.90    
  31   -99.90      -99.90      -99.90      -99.90      -99.90      -99.90      -99.90      -99.90      -99.90      -99.90    
       -99.90      -99.90      -99.90      -99.90      -99.90      -99.90      -99.90      -99.90      -99.90      -99.90    
       -99.90      -99.90      -99.90      -99.90      -99.90      -99.90      -99.90      -99.90      -99.90      -99.90    
       -99.90      -99.90      -99.90      -99.90      -99.90      -99.90      -99.90      -99.90      -99.90      -99.90    
  32   -99.90      -99.90      -99.90      -99.90      -99.90      -99.90      -99.90      -99.90      -99.90      -99.90    
       -99.90      -99.90      -99.90      -99.90      -99.90      -99.90      -99.90      -99.90      -99.90      -99.90    
       -99.90      -99.90      -99.90      -99.90      -99.90      -99.90      -99.90      -99.90      -99.90      -99.90    
       -99.90      -99.90      -99.90      -99.90      -99.90      -99.90      -99.90      -99.90      -99.90      -99.90    
  33   -99.90      -99.90      -99.90      -99.90      -99.90      -99.90      -99.90      -99.90      -99.90      -99.90    
       -99.90      -99.90      -99.90      -99.90      -99.90      -99.90      -99.90      -99.90      -99.90      -99.90    
       -99.90      -99.90      -99.90      -99.90      -99.90      -99.90      -99.90      -99.90      -99.90      -99.90    
       -99.90      -99.90      -99.90      -99.90      -99.90      -99.90      -99.90      -99.90      -99.90      -99.90    
  34   -99.90      -99.90      -99.90      -99.90      -99.90      -99.90      -99.90      -99.90      -99.90      -99.90    
       -99.90      -99.90      -99.90      -99.90      -99.90      -99.90      -99.90      -99.90      -99.90      -99.90    
       -99.90      -99.90      -99.90      -99.90      -99.90      -99.90      -99.90      -99.90      -99.90      -99.90    
       -99.90      -99.90      -99.90      -99.90      -99.90      -99.90      -99.90      -99.90      -99.90      -99.90    
  35   -99.90      -99.90      -99.90      -99.90      -99.90      -99.90      -99.90      -99.90      -99.90      -99.90    
       -99.90      -99.90      -99.90      -99.90      -99.90      -99.90      -99.90      -99.90      -99.90      -99.90    
       -99.90      -99.90      -99.90      -99.90      -99.90      -99.90      -99.90      -99.90      -99.90      -99.90    
       -99.90      -99.90      -99.90      -99.90      -99.90      -99.90      -99.90      -99.90      -99.90      -99.90    
  36   -99.90      -99.90      -99.90      -99.90      -99.90      -99.90      -99.90      -99.90      -99.90      -99.90    
       -99.90      -99.90      -99.90      -99.90      -99.90      -99.90      -99.90      -99.90      -99.90      -99.90    
       -99.90      -99.90      -99.90      -99.90      -99.90      -99.90      -99.90      -99.90      -99.90      -99.90    
       -99.90      -99.90      -99.90      -99.90      -99.90      -99.90      -99.90      -99.90      -99.90      -99.90    
  37   -99.90      -99.90      -99.90      -99.90      -99.90      -99.90      -99.90      -99.90      -99.90      -99.90    
       -99.90      -99.90      -99.90      -99.90      -99.90      -99.90      -99.90      -99.90      -99.90      -99.90    
       -99.90      -99.90      -99.90      -99.90      -99.90      -99.90      -99.90      -99.90      -99.90      -99.90    
       -99.90      -99.90      -99.90      -99.90      -99.90      -99.90      -99.90      -99.90      -99.90      -99.90    
  38   -99.90      -99.90      -99.90      -99.90      -99.90      -99.90      -99.90      -99.90      -99.90      -99.90    
       -99.90      -99.90      -99.90      -99.90      -99.90      -99.90      -99.90      -99.90      -99.90      -99.90    
       -99.90      -99.90      -99.90      -99.90      -99.90      -99.90      -99.90      -99.90      -99.90      -99.90    
       -99.90      -99.90      -99.90      -99.90      -99.90      -99.90      -99.90      -99.90      -99.90      -99.90    
  39   -99.90      -99.90      -99.90      -99.90      -99.90      -99.90      -99.90      -99.90      -99.90      -99.90    
       -99.90      -99.90      -99.90      -99.90      -99.90      -99.90      -99.90      -99.90      -99.90      -99.90    
       -99.90      -99.90      -99.90      -99.90      -99.90      -99.90      -99.90      -99.90      -99.90      -99.90    
       -99.90      -99.90      -99.90      -99.90      -99.90      -99.90      -99.90      -99.90      -99.90      -99.90    
  40   -99.90      -99.90      -99.90      -99.90      -99.90      -99.90      -99.90      -99.90      -99.90      -99.90    
       -99.90      -99.90      -99.90      -99.90      -99.90      -99.90      -99.90      -99.90      -99.90      -99.90    
       -99.90      -99.90      -99.90      -99.90      -99.90      -99.90      -99.90      -99.90      -99.90      -99.90    
       -99.90      -99.90      -99.90      -99.90      -99.90      -99.90      -99.90      -99.90      -99.90      -99.90    
1
              HEAD IN LAYER 9 AT END OF TIME STEP 2 IN STRESS PERIOD 3
  ---------------------------------------------------------------------------

            1           2           3           4           5           6           7           8           9          10
           11          12          13          14          15          16          17          18          19          20
           21          22          23          24          25          26          27          28          29          30
           31          32          33          34          35          36          37          38          39          40
 ........................................................................................................................
   1    45.96       44.37       40.95       38.00       35.62       33.67       32.06       30.73       29.61       28.69    
        27.94       27.33       26.83       26.43       26.12       25.87       25.67       25.52       25.40       25.30    
        25.23       25.18       25.14       25.10       25.08       25.06       25.04       25.03       25.03       25.02    
        25.01       25.01       25.01       25.01       25.00       25.00       25.00      -99.90      -99.90      -99.90    
   2    44.37       42.97       39.93       37.31       35.15       33.35       31.83       30.56       29.49       28.60    
        27.87       27.28       26.79       26.41       26.10       25.85       25.66       25.51       25.39       25.30    
        25.23       25.18       25.13       25.10       25.08       25.06       25.04       25.03       25.03       25.02    
        25.01       25.01       25.01       25.01       25.00       25.00       25.00      -99.90      -99.90      -99.90    
   3    40.95       39.93       38.02       36.09       34.32       32.77       31.41       30.25       29.26       28.43    
        27.75       27.18       26.72       26.35       26.06       25.82       25.64       25.49       25.38       25.29    
        25.22       25.17       25.13       25.10       25.08       25.06       25.04       25.03       25.02       25.02    
        25.01       25.01       25.01       25.01       25.00       25.00       25.00      -99.90      -99.90      -99.90    
   4    38.00       37.31       36.09       34.69       33.31       32.02       30.86       29.83       28.95       28.20    
        27.57       27.05       26.63       26.28       26.00       25.78       25.61       25.47       25.36       25.28    
        25.21       25.16       25.13       25.10       25.07       25.06       25.04       25.03       25.02       25.02    
        25.01       25.01       25.01       25.01       25.00       25.00       25.00      -99.90      -99.90      -99.90    
   5    35.62       35.15       34.32       33.31       32.24       31.20       30.22       29.35       28.58       27.92    
        27.36       26.89       26.51       26.19       25.94       25.73       25.57       25.44       25.34       25.26    
        25.20       25.16       25.12       25.09       25.07       25.05       25.04       25.03       25.02       25.02    
        25.01       25.01       25.01       25.01       25.00       25.00      -99.90      -99.90      -99.90      -99.90    
   6    33.67       33.35       32.77       32.02       31.20       30.37       29.57       28.84       28.19       27.62    
        27.13       26.72       26.37       26.09       25.86       25.68       25.53       25.41       25.32       25.25    
        25.19       25.15       25.11       25.09       25.07       25.05       25.04       25.03       25.02       25.02    
        25.01       25.01       25.01       25.01       25.00       25.00      -99.90      -99.90      -99.90      -99.90    
   7    32.06       31.83       31.41       30.86       30.22       29.57       28.93       28.33       27.79       27.30    
        26.89       26.53       26.23       25.98       25.78       25.62       25.48       25.38       25.29       25.23    
        25.18       25.14       25.10       25.08       25.06       25.05       25.04       25.03       25.02       25.02    
        25.01       25.01       25.01       25.00       25.00       25.00      -99.90      -99.90      -99.90      -99.90    
   8    30.73       30.56       30.25       29.83       29.35       28.84       28.33       27.85       27.40       27.00    
        26.65       26.34       26.09       25.87       25.70       25.55       25.44       25.34       25.27       25.21    
        25.16       25.12       25.10       25.07       25.06       25.04       25.03       25.03       25.02       25.01    
        25.01       25.01       25.01       25.00       25.00       25.00      -99.90      -99.90      -99.90      -99.90    
   9    29.61       29.49       29.26       28.95       28.58       28.19       27.79       27.40       27.04       26.71    
        26.42       26.16       25.95       25.77       25.61       25.49       25.39       25.31       25.24       25.19    
        25.15       25.11       25.09       25.07       25.05       25.04       25.03       25.02       25.02       25.01    
        25.01       25.01       25.01       25.00       25.00       25.00      -99.90      -99.90      -99.90      -99.90    
  10    28.69       28.60       28.43       28.20       27.92       27.62       27.30       27.00       26.71       26.44    
        26.20       26.00       25.82       25.66       25.53       25.43       25.34       25.27       25.21       25.17    
        25.13       25.10       25.08       25.06       25.05       25.04       25.03       25.02       25.02       25.01    
        25.01       25.01       25.01       25.00       25.00       25.00      -99.90      -99.90      -99.90      -99.90    
  11    27.94       27.87       27.75       27.57       27.36       27.13       26.89       26.65       26.42       26.20    
        26.01       25.84       25.69       25.57       25.46       25.37       25.30       25.24       25.19       25.15    
        25.12       25.09       25.07       25.05       25.04       25.03       25.03       25.02       25.01       25.01    
        25.01       25.01       25.00       25.00       25.00      -99.90      -99.90      -99.90      -99.90      -99.90    
  12    27.33       27.28       27.18       27.05       26.89       26.72       26.53       26.34       26.16       26.00    
        25.84       25.70       25.58       25.48       25.39       25.32       25.26       25.20       25.16       25.13    
        25.10       25.08       25.06       25.05       25.04       25.03       25.02       25.02       25.01       25.01    
        25.01       25.01       25.00       25.00       25.00      -99.90      -99.90      -99.90      -99.90      -99.90    
  13    26.83       26.79       26.72       26.63       26.51       26.37       26.23       26.09       25.95       25.82    
        25.69       25.58       25.49       25.40       25.33       25.27       25.22       25.17       25.14       25.11    
        25.09       25.07       25.05       25.04       25.03       25.03       25.02       25.02       25.01       25.01    
        25.01       25.01       25.00       25.00       25.00      -99.90      -99.90      -99.90      -99.90      -99.90    
  14    26.43       26.41       26.35       26.28       26.19       26.09       25.98       25.87       25.77       25.66    
        25.57       25.48       25.40       25.33       25.28       25.23       25.18       25.15       25.12       25.10    
        25.08       25.06       25.05       25.04       25.03       25.02       25.02       25.01       25.01       25.01    
        25.01       25.00       25.00       25.00       25.00      -99.90      -99.90      -99.90      -99.90      -99.90    
  15    26.12       26.10       26.06       26.00       25.94       25.86       25.78       25.70       25.61       25.53    
        25.46       25.39       25.33       25.28       25.23       25.19       25.15       25.13       25.10       25.08    
        25.06       25.05       25.04       25.03       25.03       25.02       25.02       25.01       25.01       25.01    
        25.01       25.00       25.00       25.00      -99.90      -99.90      -99.90      -99.90      -99.90      -99.90    
  16    25.87       25.85       25.82       25.78       25.73       25.68       25.62       25.55       25.49       25.43    
        25.37       25.32       25.27       25.23       25.19       25.16       25.13       25.10       25.08       25.07    
        25.06       25.04       25.03       25.03       25.02       25.02       25.01       25.01       25.01       25.01    
        25.00       25.00       25.00       25.00      -99.90      -99.90      -99.90      -99.90      -99.90      -99.90    
  17    25.67       25.66       25.64       25.61       25.57       25.53       25.48       25.44       25.39       25.34    
        25.30       25.26       25.22       25.18       25.15       25.13       25.11       25.09       25.07       25.06    
        25.05       25.04       25.03       25.02       25.02       25.01       25.01       25.01       25.01       25.01    
        25.00       25.00       25.00      -99.90      -99.90      -99.90      -99.90      -99.90      -99.90      -99.90    
  18    25.52       25.51       25.49       25.47       25.44       25.41       25.38       25.34       25.31       25.27    
        25.24       25.20       25.17       25.15       25.13       25.10       25.09       25.07       25.06       25.05    
        25.04       25.03       25.03       25.02       25.02       25.01       25.01       25.01       25.01       25.00    
        25.00       25.00       25.00      -99.90      -99.90      -99.90      -99.90      -99.90      -99.90      -99.90    
  19    25.40       25.39       25.38       25.36       25.34       25.32       25.29       25.27       25.24       25.21    
        25.19       25.16       25.14       25.12       25.10       25.08       25.07       25.06       25.05       25.04    
        25.03       25.03       25.02       25.02       25.01       25.01       25.01       25.01       25.01       25.00    
        25.00       25.00      -99.90      -99.90      -99.90      -99.90      -99.90      -99.90      -99.90      -99.90    
  20    25.30       25.30       25.29       25.28       25.26       25.25       25.23       25.21       25.19       25.17    
        25.15       25.13       25.11       25.10       25.08       25.07       25.06       25.05       25.04       25.03    
        25.03       25.02       25.02       25.01       25.01       25.01       25.01       25.01       25.00       25.00    
        25.00       25.00      -99.90      -99.90      -99.90      -99.90      -99.90      -99.90      -99.90      -99.90    
  21    25.23       25.23       25.22       25.21       25.20       25.19       25.18       25.16       25.15       25.13    
        25.12       25.10       25.09       25.08       25.06       25.06       25.05       25.04       25.03       25.03    
        25.02       25.02       25.01       25.01       25.01       25.01       25.01       25.00       25.00       25.00    
        25.00      -99.90      -99.90      -99.90      -99.90      -99.90      -99.90      -99.90      -99.90      -99.90    
  22    25.18       25.18       25.17       25.16       25.16       25.15       25.14       25.12       25.11       25.10    
        25.09       25.08       25.07       25.06       25.05       25.04       25.04       25.03       25.03       25.02    
        25.02       25.01       25.01       25.01       25.01       25.01       25.01       25.00       25.00       25.00    
        25.00      -99.90      -99.90      -99.90      -99.90      -99.90      -99.90      -99.90      -99.90      -99.90    
  23    25.14       25.13       25.13       25.13       25.12       25.11       25.10       25.10       25.09       25.08    
        25.07       25.06       25.05       25.05       25.04       25.03       25.03       25.03       25.02       25.02    
        25.01       25.01       25.01       25.01       25.01       25.01       25.00       25.00       25.00       25.00    
       -99.90      -99.90      -99.90      -99.90      -99.90      -99.90      -99.90      -99.90      -99.90      -99.90    
  24    25.10       25.10       25.10       25.10       25.09       25.09       25.08       25.07       25.07       25.06    
        25.05       25.05       25.04       25.04       25.03       25.03       25.02       25.02       25.02       25.01    
        25.01       25.01       25.01       25.01       25.01       25.00       25.00       25.00       25.00      -99.90    
       -99.90      -99.90      -99.90      -99.90      -99.90      -99.90      -99.90      -99.90      -99.90      -99.90    
  25    25.08       25.08       25.08       25.07       25.07       25.07       25.06       25.06       25.05       25.05    
        25.04       25.04       25.03       25.03       25.03       25.02       25.02       25.02       25.01       25.01    
        25.01       25.01       25.01       25.01       25.00       25.00       25.00       25.00      -99.90      -99.90    
       -99.90      -99.90      -99.90      -99.90      -99.90      -99.90      -99.90      -99.90      -99.90      -99.90    
  26    25.06       25.06       25.06       25.06       25.05       25.05       25.05       25.04       25.04       25.04    
        25.03       25.03       25.03       25.02       25.02       25.02       25.01       25.01       25.01       25.01    
        25.01       25.01       25.01       25.00       25.00       25.00       25.00      -99.90      -99.90      -99.90    
       -99.90      -99.90      -99.90      -99.90      -99.90      -99.90      -99.90      -99.90      -99.90      -99.90    
  27    25.04       25.04       25.04       25.04       25.04       25.04       25.04       25.03       25.03       25.03    
        25.03       25.02       25.02       25.02       25.02       25.01       25.01       25.01       25.01       25.01    
        25.01       25.01       25.00       25.00       25.00       25.00      -99.90      -99.90      -99.90      -99.90    
       -99.90      -99.90      -99.90      -99.90      -99.90      -99.90      -99.90      -99.90      -99.90      -99.90    
  28    25.03       25.03       25.03       25.03       25.03       25.03       25.03       25.03       25.02       25.02    
        25.02       25.02       25.02       25.01       25.01       25.01       25.01       25.01       25.01       25.01    
        25.00       25.00       25.00       25.00       25.00      -99.90      -99.90      -99.90      -99.90      -99.90    
       -99.90      -99.90      -99.90      -99.90      -99.90      -99.90      -99.90      -99.90      -99.90      -99.90    
  29    25.03       25.03       25.02       25.02       25.02       25.02       25.02       25.02       25.02       25.02    
        25.01       25.01       25.01       25.01       25.01       25.01       25.01       25.01       25.01       25.00    
        25.00       25.00       25.00       25.00      -99.90      -99.90      -99.90      -99.90      -99.90      -99.90    
       -99.90      -99.90      -99.90      -99.90      -99.90      -99.90      -99.90      -99.90      -99.90      -99.90    
  30    25.02       25.02       25.02       25.02       25.02       25.02       25.02       25.01       25.01       25.01    
        25.01       25.01       25.01       25.01       25.01       25.01       25.01       25.00       25.00       25.00    
        25.00       25.00       25.00      -99.90      -99.90      -99.90      -99.90      -99.90      -99.90      -99.90    
       -99.90      -99.90      -99.90      -99.90      -99.90      -99.90      -99.90      -99.90      -99.90      -99.90    
  31    25.01       25.01       25.01       25.01       25.01       25.01       25.01       25.01       25.01       25.01    
        25.01       25.01       25.01       25.01       25.01       25.00       25.00       25.00       25.00       25.00    
        25.00       25.00      -99.90      -99.90      -99.90      -99.90      -99.90      -99.90      -99.90      -99.90    
       -99.90      -99.90      -99.90      -99.90      -99.90      -99.90      -99.90      -99.90      -99.90      -99.90    
  32    25.01       25.01       25.01       25.01       25.01       25.01       25.01       25.01       25.01       25.01    
        25.01       25.01       25.01       25.00       25.00       25.00       25.00       25.00       25.00       25.00    
       -99.90      -99.90      -99.90      -99.90      -99.90      -99.90      -99.90      -99.90      -99.90      -99.90    
       -99.90      -99.90      -99.90      -99.90      -99.90      -99.90      -99.90      -99.90      -99.90      -99.90    
  33    25.01       25.01       25.01       25.01       25.01       25.01       25.01       25.01       25.01       25.01    
        25.00       25.00       25.00       25.00       25.00       25.00       25.00       25.00      -99.90      -99.90    
       -99.90      -99.90      -99.90      -99.90      -99.90      -99.90      -99.90      -99.90      -99.90      -99.90    
       -99.90      -99.90      -99.90      -99.90      -99.90      -99.90      -99.90      -99.90      -99.90      -99.90    
  34    25.01       25.01       25.01       25.01       25.01       25.01       25.00       25.00       25.00       25.00    
        25.00       25.00       25.00       25.00       25.00       25.00      -99.90      -99.90      -99.90      -99.90    
       -99.90      -99.90      -99.90      -99.90      -99.90      -99.90      -99.90      -99.90      -99.90      -99.90    
       -99.90      -99.90      -99.90      -99.90      -99.90      -99.90      -99.90      -99.90      -99.90      -99.90    
  35    25.00       25.00       25.00       25.00       25.00       25.00       25.00       25.00       25.00       25.00    
        25.00       25.00       25.00       25.00      -99.90      -99.90      -99.90      -99.90      -99.90      -99.90    
       -99.90      -99.90      -99.90      -99.90      -99.90      -99.90      -99.90      -99.90      -99.90      -99.90    
       -99.90      -99.90      -99.90      -99.90      -99.90      -99.90      -99.90      -99.90      -99.90      -99.90    
  36    25.00       25.00       25.00       25.00       25.00       25.00       25.00       25.00       25.00       25.00    
       -99.90      -99.90      -99.90      -99.90      -99.90      -99.90      -99.90      -99.90      -99.90      -99.90    
       -99.90      -99.90      -99.90      -99.90      -99.90      -99.90      -99.90      -99.90      -99.90      -99.90    
       -99.90      -99.90      -99.90      -99.90      -99.90      -99.90      -99.90      -99.90      -99.90      -99.90    
  37    25.00       25.00       25.00       25.00      -99.90      -99.90      -99.90      -99.90      -99.90      -99.90    
       -99.90      -99.90      -99.90      -99.90      -99.90      -99.90      -99.90      -99.90      -99.90      -99.90    
       -99.90      -99.90      -99.90      -99.90      -99.90      -99.90      -99.90      -99.90      -99.90      -99.90    
       -99.90      -99.90      -99.90      -99.90      -99.90      -99.90      -99.90      -99.90      -99.90      -99.90    
  38   -99.90      -99.90      -99.90      -99.90      -99.90      -99.90      -99.90      -99.90      -99.90      -99.90    
       -99.90      -99.90      -99.90      -99.90      -99.90      -99.90      -99.90      -99.90      -99.90      -99.90    
       -99.90      -99.90      -99.90      -99.90      -99.90      -99.90      -99.90      -99.90      -99.90      -99.90    
       -99.90      -99.90      -99.90      -99.90      -99.90      -99.90      -99.90      -99.90      -99.90      -99.90    
  39   -99.90      -99.90      -99.90      -99.90      -99.90      -99.90      -99.90      -99.90      -99.90      -99.90    
       -99.90      -99.90      -99.90      -99.90      -99.90      -99.90      -99.90      -99.90      -99.90      -99.90    
       -99.90      -99.90      -99.90      -99.90      -99.90      -99.90      -99.90      -99.90      -99.90      -99.90    
       -99.90      -99.90      -99.90      -99.90      -99.90      -99.90      -99.90      -99.90      -99.90      -99.90    
  40   -99.90      -99.90      -99.90      -99.90      -99.90      -99.90      -99.90      -99.90      -99.90      -99.90    
       -99.90      -99.90      -99.90      -99.90      -99.90      -99.90      -99.90      -99.90      -99.90      -99.90    
       -99.90      -99.90      -99.90      -99.90      -99.90      -99.90      -99.90      -99.90      -99.90      -99.90    
       -99.90      -99.90      -99.90      -99.90      -99.90      -99.90      -99.90      -99.90      -99.90      -99.90    
1
              HEAD IN LAYER 10 AT END OF TIME STEP 2 IN STRESS PERIOD 3
  ---------------------------------------------------------------------------

            1           2           3           4           5           6           7           8           9          10
           11          12          13          14          15          16          17          18          19          20
           21          22          23          24          25          26          27          28          29          30
           31          32          33          34          35          36          37          38          39          40
 ........................................................................................................................
   1    45.49       43.94       40.81       37.96       35.60       33.67       32.07       30.74       29.62       28.71    
        27.95       27.34       26.84       26.44       26.12       25.87       25.68       25.52       25.40       25.31    
        25.23       25.18       25.14       25.10       25.08       25.06       25.05       25.03       25.03       25.02    
        25.01       25.01       25.01       25.01       25.00       25.00       25.00       25.00       25.00       25.00    
   2    43.94       42.58       39.81       37.28       35.14       33.35       31.84       30.57       29.50       28.62    
        27.89       27.29       26.80       26.41       26.10       25.86       25.66       25.51       25.39       25.30    
        25.23       25.18       25.13       25.10       25.08       25.06       25.04       25.03       25.03       25.02    
        25.01       25.01       25.01       25.01       25.00       25.00       25.00       25.00       25.00       25.00    
   3    40.81       39.81       37.98       36.07       34.32       32.77       31.42       30.26       29.27       28.45    
        27.76       27.19       26.73       26.36       26.07       25.83       25.64       25.50       25.38       25.29    
        25.23       25.17       25.13       25.10       25.08       25.06       25.04       25.03       25.02       25.02    
        25.01       25.01       25.01       25.01       25.00       25.00       25.00       25.00       25.00       25.00    
   4    37.96       37.28       36.07       34.69       33.31       32.03       30.87       29.84       28.96       28.21    
        27.58       27.06       26.64       26.29       26.01       25.79       25.61       25.48       25.37       25.28    
        25.22       25.17       25.13       25.10       25.07       25.06       25.04       25.03       25.02       25.02    
        25.01       25.01       25.01       25.01       25.00       25.00       25.00       25.00       25.00       25.00    
   5    35.60       35.14       34.32       33.31       32.25       31.21       30.24       29.36       28.59       27.93    
        27.37       26.90       26.52       26.20       25.94       25.74       25.58       25.45       25.35       25.27    
        25.21       25.16       25.12       25.09       25.07       25.05       25.04       25.03       25.02       25.02    
        25.01       25.01       25.01       25.01       25.00       25.00       25.00       25.00       25.00       25.00    
   6    33.67       33.35       32.77       32.03       31.21       30.38       29.58       28.85       28.20       27.63    
        27.14       26.72       26.38       26.10       25.87       25.68       25.53       25.42       25.32       25.25    
        25.19       25.15       25.11       25.09       25.07       25.05       25.04       25.03       25.02       25.02    
        25.01       25.01       25.01       25.01       25.00       25.00       25.00       25.00       25.00       25.00    
   7    32.07       31.84       31.42       30.87       30.24       29.58       28.94       28.34       27.80       27.32    
        26.90       26.54       26.24       25.99       25.79       25.62       25.49       25.38       25.30       25.23    
        25.18       25.14       25.11       25.08       25.06       25.05       25.04       25.03       25.02       25.02    
        25.01       25.01       25.01       25.01       25.00       25.00       25.00       25.00       25.00       25.00    
   8    30.74       30.57       30.26       29.84       29.36       28.85       28.34       27.86       27.41       27.01    
        26.66       26.35       26.09       25.88       25.70       25.56       25.44       25.34       25.27       25.21    
        25.16       25.13       25.10       25.07       25.06       25.04       25.03       25.03       25.02       25.01    
        25.01       25.01       25.01       25.00       25.00       25.00       25.00       25.00       25.00       25.00    
   9    29.62       29.50       29.27       28.96       28.59       28.20       27.80       27.41       27.05       26.72    
        26.43       26.17       25.95       25.77       25.62       25.49       25.39       25.31       25.24       25.19    
        25.15       25.11       25.09       25.07       25.05       25.04       25.03       25.02       25.02       25.01    
        25.01       25.01       25.01       25.00       25.00       25.00       25.00       25.00       25.00       25.00    
  10    28.71       28.62       28.45       28.21       27.93       27.63       27.32       27.01       26.72       26.45    
        26.21       26.00       25.82       25.67       25.54       25.43       25.34       25.27       25.21       25.17    
        25.13       25.10       25.08       25.06       25.05       25.04       25.03       25.02       25.02       25.01    
        25.01       25.01       25.01       25.00       25.00       25.00       25.00       25.00       25.00       25.00    
  11    27.95       27.89       27.76       27.58       27.37       27.14       26.90       26.66       26.43       26.21    
        26.02       25.85       25.70       25.57       25.46       25.37       25.30       25.24       25.19       25.15    
        25.12       25.09       25.07       25.06       25.04       25.03       25.03       25.02       25.02       25.01    
        25.01       25.01       25.01       25.00       25.00       25.00       25.00       25.00       25.00       25.00    
  12    27.34       27.29       27.19       27.06       26.90       26.72       26.54       26.35       26.17       26.00    
        25.85       25.71       25.59       25.48       25.39       25.32       25.26       25.21       25.16       25.13    
        25.10       25.08       25.06       25.05       25.04       25.03       25.02       25.02       25.01       25.01    
        25.01       25.01       25.00       25.00       25.00       25.00       25.00       25.00       25.00       25.00    
  13    26.84       26.80       26.73       26.64       26.52       26.38       26.24       26.09       25.95       25.82    
        25.70       25.59       25.49       25.41       25.33       25.27       25.22       25.18       25.14       25.11    
        25.09       25.07       25.06       25.04       25.03       25.03       25.02       25.02       25.01       25.01    
        25.01       25.01       25.00       25.00       25.00       25.00       25.00       25.00       25.00       25.00    
  14    26.44       26.41       26.36       26.29       26.20       26.10       25.99       25.88       25.77       25.67    
        25.57       25.48       25.41       25.34       25.28       25.23       25.19       25.15       25.12       25.10    
        25.08       25.06       25.05       25.04       25.03       25.02       25.02       25.01       25.01       25.01    
        25.01       25.00       25.00       25.00       25.00       25.00       25.00       25.00       25.00       25.00    
  15    26.12       26.10       26.07       26.01       25.94       25.87       25.79       25.70       25.62       25.54    
        25.46       25.39       25.33       25.28       25.23       25.19       25.16       25.13       25.10       25.08    
        25.07       25.05       25.04       25.03       25.03       25.02       25.02       25.01       25.01       25.01    
        25.01       25.00       25.00       25.00       25.00       25.00       25.00       25.00       25.00       25.00    
  16    25.87       25.86       25.83       25.79       25.74       25.68       25.62       25.56       25.49       25.43    
        25.37       25.32       25.27       25.23       25.19       25.16       25.13       25.11       25.09       25.07    
        25.06       25.04       25.04       25.03       25.02       25.02       25.01       25.01       25.01       25.01    
        25.00       25.00       25.00       25.00       25.00       25.00       25.00       25.00       25.00       25.00    
  17    25.68       25.66       25.64       25.61       25.58       25.53       25.49       25.44       25.39       25.34    
        25.30       25.26       25.22       25.19       25.16       25.13       25.11       25.09       25.07       25.06    
        25.05       25.04       25.03       25.02       25.02       25.01       25.01       25.01       25.01       25.01    
        25.00       25.00       25.00       25.00       25.00       25.00       25.00       25.00       25.00       25.00    
  18    25.52       25.51       25.50       25.48       25.45       25.42       25.38       25.34       25.31       25.27    
        25.24       25.21       25.18       25.15       25.13       25.11       25.09       25.07       25.06       25.05    
        25.04       25.03       25.03       25.02       25.02       25.01       25.01       25.01       25.01       25.00    
        25.00       25.00       25.00       25.00       25.00       25.00       25.00       25.00       25.00       25.00    
  19    25.40       25.39       25.38       25.37       25.35       25.32       25.30       25.27       25.24       25.21    
        25.19       25.16       25.14       25.12       25.10       25.09       25.07       25.06       25.05       25.04    
        25.03       25.03       25.02       25.02       25.01       25.01       25.01       25.01       25.01       25.00    
        25.00       25.00       25.00       25.00       25.00       25.00       25.00       25.00       25.00       25.00    
  20    25.31       25.30       25.29       25.28       25.27       25.25       25.23       25.21       25.19       25.17    
        25.15       25.13       25.11       25.10       25.08       25.07       25.06       25.05       25.04       25.03    
        25.03       25.02       25.02       25.01       25.01       25.01       25.01       25.01       25.00       25.00    
        25.00       25.00       25.00       25.00       25.00       25.00       25.00       25.00       25.00       25.00    
  21    25.23       25.23       25.23       25.22       25.21       25.19       25.18       25.16       25.15       25.13    
        25.12       25.10       25.09       25.08       25.07       25.06       25.05       25.04       25.03       25.03    
        25.02       25.02       25.01       25.01       25.01       25.01       25.01       25.00       25.00       25.00    
        25.00       25.00       25.00       25.00       25.00       25.00       25.00       25.00       25.00       25.00    
  22    25.18       25.18       25.17       25.17       25.16       25.15       25.14       25.13       25.11       25.10    
        25.09       25.08       25.07       25.06       25.05       25.04       25.04       25.03       25.03       25.02    
        25.02       25.01       25.01       25.01       25.01       25.01       25.01       25.00       25.00       25.00    
        25.00       25.00       25.00       25.00       25.00       25.00       25.00       25.00       25.00       25.00    
  23    25.14       25.13       25.13       25.13       25.12       25.11       25.11       25.10       25.09       25.08    
        25.07       25.06       25.06       25.05       25.04       25.04       25.03       25.03       25.02       25.02    
        25.01       25.01       25.01       25.01       25.01       25.01       25.00       25.00       25.00       25.00    
        25.00       25.00       25.00       25.00       25.00       25.00       25.00       25.00       25.00       25.00    
  24    25.10       25.10       25.10       25.10       25.09       25.09       25.08       25.07       25.07       25.06    
        25.06       25.05       25.04       25.04       25.03       25.03       25.02       25.02       25.02       25.01    
        25.01       25.01       25.01       25.01       25.01       25.00       25.00       25.00       25.00       25.00    
        25.00       25.00       25.00       25.00       25.00       25.00       25.00       25.00       25.00       25.00    
  25    25.08       25.08       25.08       25.07       25.07       25.07       25.06       25.06       25.05       25.05    
        25.04       25.04       25.03       25.03       25.03       25.02       25.02       25.02       25.01       25.01    
        25.01       25.01       25.01       25.01       25.00       25.00       25.00       25.00       25.00       25.00    
        25.00       25.00       25.00       25.00       25.00       25.00       25.00       25.00       25.00       25.00    
  26    25.06       25.06       25.06       25.06       25.05       25.05       25.05       25.04       25.04       25.04    
        25.03       25.03       25.03       25.02       25.02       25.02       25.01       25.01       25.01       25.01    
        25.01       25.01       25.01       25.00       25.00       25.00       25.00       25.00       25.00       25.00    
        25.00       25.00       25.00       25.00       25.00       25.00       25.00       25.00       25.00       25.00    
  27    25.05       25.04       25.04       25.04       25.04       25.04       25.04       25.03       25.03       25.03    
        25.03       25.02       25.02       25.02       25.02       25.01       25.01       25.01       25.01       25.01    
        25.01       25.01       25.00       25.00       25.00       25.00       25.00       25.00       25.00       25.00    
        25.00       25.00       25.00       25.00       25.00       25.00       25.00       25.00       25.00       25.00    
  28    25.03       25.03       25.03       25.03       25.03       25.03       25.03       25.03       25.02       25.02    
        25.02       25.02       25.02       25.01       25.01       25.01       25.01       25.01       25.01       25.01    
        25.00       25.00       25.00       25.00       25.00       25.00       25.00       25.00       25.00       25.00    
        25.00       25.00       25.00       25.00       25.00       25.00       25.00       25.00       25.00       25.00    
  29    25.03       25.03       25.02       25.02       25.02       25.02       25.02       25.02       25.02       25.02    
        25.02       25.01       25.01       25.01       25.01       25.01       25.01       25.01       25.01       25.00    
        25.00       25.00       25.00       25.00       25.00       25.00       25.00       25.00       25.00       25.00    
        25.00       25.00       25.00       25.00       25.00       25.00       25.00       25.00       25.00       25.00    
  30    25.02       25.02       25.02       25.02       25.02       25.02       25.02       25.01       25.01       25.01    
        25.01       25.01       25.01       25.01       25.01       25.01       25.01       25.00       25.00       25.00    
        25.00       25.00       25.00       25.00       25.00       25.00       25.00       25.00       25.00       25.00    
        25.00       25.00       25.00       25.00       25.00       25.00       25.00       25.00       25.00       25.00    
  31    25.01       25.01       25.01       25.01       25.01       25.01       25.01       25.01       25.01       25.01    
        25.01       25.01       25.01       25.01       25.01       25.00       25.00       25.00       25.00       25.00    
        25.00       25.00       25.00       25.00       25.00       25.00       25.00       25.00       25.00       25.00    
        25.00       25.00       25.00       25.00       25.00       25.00       25.00       25.00       25.00       25.00    
  32    25.01       25.01       25.01       25.01       25.01       25.01       25.01       25.01       25.01       25.01    
        25.01       25.01       25.01       25.00       25.00       25.00       25.00       25.00       25.00       25.00    
        25.00       25.00       25.00       25.00       25.00       25.00       25.00       25.00       25.00       25.00    
        25.00       25.00       25.00       25.00       25.00       25.00       25.00       25.00       25.00       25.00    
  33    25.01       25.01       25.01       25.01       25.01       25.01       25.01       25.01       25.01       25.01    
        25.01       25.00       25.00       25.00       25.00       25.00       25.00       25.00       25.00       25.00    
        25.00       25.00       25.00       25.00       25.00       25.00       25.00       25.00       25.00       25.00    
        25.00       25.00       25.00       25.00       25.00       25.00       25.00       25.00       25.00       25.00    
  34    25.01       25.01       25.01       25.01       25.01       25.01       25.01       25.00       25.00       25.00    
        25.00       25.00       25.00       25.00       25.00       25.00       25.00       25.00       25.00       25.00    
        25.00       25.00       25.00       25.00       25.00       25.00       25.00       25.00       25.00       25.00    
        25.00       25.00       25.00       25.00       25.00       25.00       25.00       25.00       25.00       25.00    
  35    25.00       25.00       25.00       25.00       25.00       25.00       25.00       25.00       25.00       25.00    
        25.00       25.00       25.00       25.00       25.00       25.00       25.00       25.00       25.00       25.00    
        25.00       25.00       25.00       25.00       25.00       25.00       25.00       25.00       25.00       25.00    
        25.00       25.00       25.00       25.00       25.00       25.00       25.00       25.00       25.00       25.00    
  36    25.00       25.00       25.00       25.00       25.00       25.00       25.00       25.00       25.00       25.00    
        25.00       25.00       25.00       25.00       25.00       25.00       25.00       25.00       25.00       25.00    
        25.00       25.00       25.00       25.00       25.00       25.00       25.00       25.00       25.00       25.00    
        25.00       25.00       25.00       25.00       25.00       25.00       25.00       25.00       25.00       25.00    
  37    25.00       25.00       25.00       25.00       25.00       25.00       25.00       25.00       25.00       25.00    
        25.00       25.00       25.00       25.00       25.00       25.00       25.00       25.00       25.00       25.00    
        25.00       25.00       25.00       25.00       25.00       25.00       25.00       25.00       25.00       25.00    
        25.00       25.00       25.00       25.00       25.00       25.00       25.00       25.00       25.00       25.00    
  38    25.00       25.00       25.00       25.00       25.00       25.00       25.00       25.00       25.00       25.00    
        25.00       25.00       25.00       25.00       25.00       25.00       25.00       25.00       25.00       25.00    
        25.00       25.00       25.00       25.00       25.00       25.00       25.00       25.00       25.00       25.00    
        25.00       25.00       25.00       25.00       25.00       25.00       25.00       25.00       25.00       25.00    
  39    25.00       25.00       25.00       25.00       25.00       25.00       25.00       25.00       25.00       25.00    
        25.00       25.00       25.00       25.00       25.00       25.00       25.00       25.00       25.00       25.00    
        25.00       25.00       25.00       25.00       25.00       25.00       25.00       25.00       25.00       25.00    
        25.00       25.00       25.00       25.00       25.00       25.00       25.00       25.00       25.00       25.00    
  40    25.00       25.00       25.00       25.00       25.00       25.00       25.00       25.00       25.00       25.00    
        25.00       25.00       25.00       25.00       25.00       25.00       25.00       25.00       25.00       25.00    
        25.00       25.00       25.00       25.00       25.00       25.00       25.00       25.00       25.00       25.00    
        25.00       25.00       25.00       25.00       25.00       25.00       25.00       25.00       25.00       25.00    
1
              HEAD IN LAYER 11 AT END OF TIME STEP 2 IN STRESS PERIOD 3
  ---------------------------------------------------------------------------

            1           2           3           4           5           6           7           8           9          10
           11          12          13          14          15          16          17          18          19          20
           21          22          23          24          25          26          27          28          29          30
           31          32          33          34          35          36          37          38          39          40
 ........................................................................................................................
   1    45.12       43.61       40.69       37.92       35.60       33.67       32.07       30.74       29.63       28.71    
        27.96       27.35       26.85       26.45       26.13       25.88       25.68       25.52       25.40       25.31    
        25.24       25.18       25.14       25.10       25.08       25.06       25.05       25.03       25.03       25.02    
        25.01       25.01       25.01       25.01       25.00       25.00       25.00       25.00       25.00       25.00    
   2    43.61       42.29       39.72       37.25       35.14       33.35       31.85       30.58       29.51       28.63    
        27.89       27.30       26.81       26.42       26.11       25.86       25.67       25.52       25.40       25.30    
        25.23       25.18       25.14       25.10       25.08       25.06       25.05       25.03       25.03       25.02    
        25.01       25.01       25.01       25.01       25.00       25.00       25.00       25.00       25.00       25.00    
   3    40.69       39.72       37.94       36.06       34.32       32.77       31.43       30.27       29.28       28.46    
        27.77       27.20       26.74       26.37       26.07       25.83       25.65       25.50       25.39       25.30    
        25.23       25.17       25.13       25.10       25.08       25.06       25.04       25.03       25.03       25.02    
        25.01       25.01       25.01       25.01       25.00       25.00       25.00       25.00       25.00       25.00    
   4    37.92       37.25       36.06       34.69       33.32       32.03       30.87       29.85       28.97       28.22    
        27.59       27.07       26.64       26.30       26.02       25.79       25.62       25.48       25.37       25.28    
        25.22       25.17       25.13       25.10       25.07       25.06       25.04       25.03       25.02       25.02    
        25.01       25.01       25.01       25.01       25.00       25.00       25.00       25.00       25.00       25.00    
   5    35.60       35.14       34.32       33.32       32.25       31.21       30.24       29.37       28.60       27.94    
        27.38       26.91       26.52       26.21       25.95       25.74       25.58       25.45       25.35       25.27    
        25.21       25.16       25.12       25.09       25.07       25.05       25.04       25.03       25.02       25.02    
        25.01       25.01       25.01       25.01       25.00       25.00       25.00       25.00       25.00       25.00    
   6    33.67       33.35       32.77       32.03       31.21       30.38       29.59       28.86       28.21       27.64    
        27.15       26.73       26.39       26.10       25.87       25.69       25.54       25.42       25.32       25.25    
        25.19       25.15       25.11       25.09       25.07       25.05       25.04       25.03       25.02       25.02    
        25.01       25.01       25.01       25.01       25.00       25.00       25.00       25.00       25.00       25.00    
   7    32.07       31.85       31.43       30.87       30.24       29.59       28.95       28.35       27.81       27.32    
        26.90       26.55       26.24       25.99       25.79       25.62       25.49       25.38       25.30       25.23    
        25.18       25.14       25.11       25.08       25.06       25.05       25.04       25.03       25.02       25.02    
        25.01       25.01       25.01       25.01       25.00       25.00       25.00       25.00       25.00       25.00    
   8    30.74       30.58       30.27       29.85       29.37       28.86       28.35       27.87       27.42       27.02    
        26.66       26.36       26.10       25.88       25.71       25.56       25.44       25.35       25.27       25.21    
        25.16       25.13       25.10       25.08       25.06       25.04       25.03       25.03       25.02       25.01    
        25.01       25.01       25.01       25.00       25.00       25.00       25.00       25.00       25.00       25.00    
   9    29.63       29.51       29.28       28.97       28.60       28.21       27.81       27.42       27.06       26.73    
        26.43       26.18       25.96       25.78       25.62       25.50       25.39       25.31       25.24       25.19    
        25.15       25.12       25.09       25.07       25.05       25.04       25.03       25.02       25.02       25.01    
        25.01       25.01       25.01       25.00       25.00       25.00       25.00       25.00       25.00       25.00    
  10    28.71       28.63       28.46       28.22       27.94       27.64       27.32       27.02       26.73       26.46    
        26.22       26.01       25.83       25.67       25.54       25.43       25.35       25.27       25.22       25.17    
        25.13       25.10       25.08       25.06       25.05       25.04       25.03       25.02       25.02       25.01    
        25.01       25.01       25.01       25.00       25.00       25.00       25.00       25.00       25.00       25.00    
  11    27.96       27.89       27.77       27.59       27.38       27.15       26.90       26.66       26.43       26.22    
        26.02       25.85       25.70       25.57       25.47       25.38       25.30       25.24       25.19       25.15    
        25.12       25.09       25.07       25.06       25.04       25.03       25.03       25.02       25.02       25.01    
        25.01       25.01       25.01       25.00       25.00       25.00       25.00       25.00       25.00       25.00    
  12    27.35       27.30       27.20       27.07       26.91       26.73       26.55       26.36       26.18       26.01    
        25.85       25.71       25.59       25.49       25.40       25.32       25.26       25.21       25.17       25.13    
        25.10       25.08       25.06       25.05       25.04       25.03       25.02       25.02       25.01       25.01    
        25.01       25.01       25.00       25.00       25.00       25.00       25.00       25.00       25.00       25.00    
  13    26.85       26.81       26.74       26.64       26.52       26.39       26.24       26.10       25.96       25.83    
        25.70       25.59       25.49       25.41       25.34       25.27       25.22       25.18       25.14       25.11    
        25.09       25.07       25.06       25.04       25.03       25.03       25.02       25.02       25.01       25.01    
        25.01       25.01       25.00       25.00       25.00       25.00       25.00       25.00       25.00       25.00    
  14    26.45       26.42       26.37       26.30       26.21       26.10       25.99       25.88       25.78       25.67    
        25.57       25.49       25.41       25.34       25.28       25.23       25.19       25.15       25.12       25.10    
        25.08       25.06       25.05       25.04       25.03       25.02       25.02       25.01       25.01       25.01    
        25.01       25.00       25.00       25.00       25.00       25.00       25.00       25.00       25.00       25.00    
  15    26.13       26.11       26.07       26.02       25.95       25.87       25.79       25.71       25.62       25.54    
        25.47       25.40       25.34       25.28       25.23       25.19       25.16       25.13       25.10       25.08    
        25.07       25.05       25.04       25.03       25.03       25.02       25.02       25.01       25.01       25.01    
        25.01       25.00       25.00       25.00       25.00       25.00       25.00       25.00       25.00       25.00    
  16    25.88       25.86       25.83       25.79       25.74       25.69       25.62       25.56       25.50       25.43    
        25.38       25.32       25.27       25.23       25.19       25.16       25.13       25.11       25.09       25.07    
        25.06       25.04       25.04       25.03       25.02       25.02       25.01       25.01       25.01       25.01    
        25.01       25.00       25.00       25.00       25.00       25.00       25.00       25.00       25.00       25.00    
  17    25.68       25.67       25.65       25.62       25.58       25.54       25.49       25.44       25.39       25.35    
        25.30       25.26       25.22       25.19       25.16       25.13       25.11       25.09       25.07       25.06    
        25.05       25.04       25.03       25.02       25.02       25.02       25.01       25.01       25.01       25.01    
        25.00       25.00       25.00       25.00       25.00       25.00       25.00       25.00       25.00       25.00    
  18    25.52       25.52       25.50       25.48       25.45       25.42       25.38       25.35       25.31       25.27    
        25.24       25.21       25.18       25.15       25.13       25.11       25.09       25.07       25.06       25.05    
        25.04       25.03       25.03       25.02       25.02       25.01       25.01       25.01       25.01       25.00    
        25.00       25.00       25.00       25.00       25.00       25.00       25.00       25.00       25.00       25.00    
  19    25.40       25.40       25.39       25.37       25.35       25.32       25.30       25.27       25.24       25.22    
        25.19       25.17       25.14       25.12       25.10       25.09       25.07       25.06       25.05       25.04    
        25.03       25.03       25.02       25.02       25.01       25.01       25.01       25.01       25.01       25.00    
        25.00       25.00       25.00       25.00       25.00       25.00       25.00       25.00       25.00       25.00    
  20    25.31       25.30       25.30       25.28       25.27       25.25       25.23       25.21       25.19       25.17    
        25.15       25.13       25.11       25.10       25.08       25.07       25.06       25.05       25.04       25.03    
        25.03       25.02       25.02       25.01       25.01       25.01       25.01       25.01       25.00       25.00    
        25.00       25.00       25.00       25.00       25.00       25.00       25.00       25.00       25.00       25.00    
  21    25.24       25.23       25.23       25.22       25.21       25.19       25.18       25.16       25.15       25.13    
        25.12       25.10       25.09       25.08       25.07       25.06       25.05       25.04       25.03       25.03    
        25.02       25.02       25.01       25.01       25.01       25.01       25.01       25.00       25.00       25.00    
        25.00       25.00       25.00       25.00       25.00       25.00       25.00       25.00       25.00       25.00    
  22    25.18       25.18       25.17       25.17       25.16       25.15       25.14       25.13       25.12       25.10    
        25.09       25.08       25.07       25.06       25.05       25.04       25.04       25.03       25.03       25.02    
        25.02       25.01       25.01       25.01       25.01       25.01       25.01       25.00       25.00       25.00    
        25.00       25.00       25.00       25.00       25.00       25.00       25.00       25.00       25.00       25.00    
  23    25.14       25.14       25.13       25.13       25.12       25.11       25.11       25.10       25.09       25.08    
        25.07       25.06       25.06       25.05       25.04       25.04       25.03       25.03       25.02       25.02    
        25.01       25.01       25.01       25.01       25.01       25.01       25.00       25.00       25.00       25.00    
        25.00       25.00       25.00       25.00       25.00       25.00       25.00       25.00       25.00       25.00    
  24    25.10       25.10       25.10       25.10       25.09       25.09       25.08       25.08       25.07       25.06    
        25.06       25.05       25.04       25.04       25.03       25.03       25.02       25.02       25.02       25.01    
        25.01       25.01       25.01       25.01       25.01       25.00       25.00       25.00       25.00       25.00    
        25.00       25.00       25.00       25.00       25.00       25.00       25.00       25.00       25.00       25.00    
  25    25.08       25.08       25.08       25.07       25.07       25.07       25.06       25.06       25.05       25.05    
        25.04       25.04       25.03       25.03       25.03       25.02       25.02       25.02       25.01       25.01    
        25.01       25.01       25.01       25.01       25.00       25.00       25.00       25.00       25.00       25.00    
        25.00       25.00       25.00       25.00       25.00       25.00       25.00       25.00       25.00       25.00    
  26    25.06       25.06       25.06       25.06       25.05       25.05       25.05       25.04       25.04       25.04    
        25.03       25.03       25.03       25.02       25.02       25.02       25.02       25.01       25.01       25.01    
        25.01       25.01       25.01       25.00       25.00       25.00       25.00       25.00       25.00       25.00    
        25.00       25.00       25.00       25.00       25.00       25.00       25.00       25.00       25.00       25.00    
  27    25.05       25.05       25.04       25.04       25.04       25.04       25.04       25.03       25.03       25.03    
        25.03       25.02       25.02       25.02       25.02       25.01       25.01       25.01       25.01       25.01    
        25.01       25.01       25.00       25.00       25.00       25.00       25.00       25.00       25.00       25.00    
        25.00       25.00       25.00       25.00       25.00       25.00       25.00       25.00       25.00       25.00    
  28    25.03       25.03       25.03       25.03       25.03       25.03       25.03       25.03       25.02       25.02    
        25.02       25.02       25.02       25.01       25.01       25.01       25.01       25.01       25.01       25.01    
        25.00       25.00       25.00       25.00       25.00       25.00       25.00       25.00       25.00       25.00    
        25.00       25.00       25.00       25.00       25.00       25.00       25.00       25.00       25.00       25.00    
  29    25.03       25.03       25.03       25.02       25.02       25.02       25.02       25.02       25.02       25.02    
        25.02       25.01       25.01       25.01       25.01       25.01       25.01       25.01       25.01       25.00    
        25.00       25.00       25.00       25.00       25.00       25.00       25.00       25.00       25.00       25.00    
        25.00       25.00       25.00       25.00       25.00       25.00       25.00       25.00       25.00       25.00    
  30    25.02       25.02       25.02       25.02       25.02       25.02       25.02       25.01       25.01       25.01    
        25.01       25.01       25.01       25.01       25.01       25.01       25.01       25.00       25.00       25.00    
        25.00       25.00       25.00       25.00       25.00       25.00       25.00       25.00       25.00       25.00    
        25.00       25.00       25.00       25.00       25.00       25.00       25.00       25.00       25.00       25.00    
  31    25.01       25.01       25.01       25.01       25.01       25.01       25.01       25.01       25.01       25.01    
        25.01       25.01       25.01       25.01       25.01       25.01       25.00       25.00       25.00       25.00    
        25.00       25.00       25.00       25.00       25.00       25.00       25.00       25.00       25.00       25.00    
        25.00       25.00       25.00       25.00       25.00       25.00       25.00       25.00       25.00       25.00    
  32    25.01       25.01       25.01       25.01       25.01       25.01       25.01       25.01       25.01       25.01    
        25.01       25.01       25.01       25.00       25.00       25.00       25.00       25.00       25.00       25.00    
        25.00       25.00       25.00       25.00       25.00       25.00       25.00       25.00       25.00       25.00    
        25.00       25.00       25.00       25.00       25.00       25.00       25.00       25.00       25.00       25.00    
  33    25.01       25.01       25.01       25.01       25.01       25.01       25.01       25.01       25.01       25.01    
        25.01       25.00       25.00       25.00       25.00       25.00       25.00       25.00       25.00       25.00    
        25.00       25.00       25.00       25.00       25.00       25.00       25.00       25.00       25.00       25.00    
        25.00       25.00       25.00       25.00       25.00       25.00       25.00       25.00       25.00       25.00    
  34    25.01       25.01       25.01       25.01       25.01       25.01       25.01       25.00       25.00       25.00    
        25.00       25.00       25.00       25.00       25.00       25.00       25.00       25.00       25.00       25.00    
        25.00       25.00       25.00       25.00       25.00       25.00       25.00       25.00       25.00       25.00    
        25.00       25.00       25.00       25.00       25.00       25.00       25.00       25.00       25.00       25.00    
  35    25.00       25.00       25.00       25.00       25.00       25.00       25.00       25.00       25.00       25.00    
        25.00       25.00       25.00       25.00       25.00       25.00       25.00       25.00       25.00       25.00    
        25.00       25.00       25.00       25.00       25.00       25.00       25.00       25.00       25.00       25.00    
        25.00       25.00       25.00       25.00       25.00       25.00       25.00       25.00       25.00       25.00    
  36    25.00       25.00       25.00       25.00       25.00       25.00       25.00       25.00       25.00       25.00    
        25.00       25.00       25.00       25.00       25.00       25.00       25.00       25.00       25.00       25.00    
        25.00       25.00       25.00       25.00       25.00       25.00       25.00       25.00       25.00       25.00    
        25.00       25.00       25.00       25.00       25.00       25.00       25.00       25.00       25.00       25.00    
  37    25.00       25.00       25.00       25.00       25.00       25.00       25.00       25.00       25.00       25.00    
        25.00       25.00       25.00       25.00       25.00       25.00       25.00       25.00       25.00       25.00    
        25.00       25.00       25.00       25.00       25.00       25.00       25.00       25.00       25.00       25.00    
        25.00       25.00       25.00       25.00       25.00       25.00       25.00       25.00       25.00       25.00    
  38    25.00       25.00       25.00       25.00       25.00       25.00       25.00       25.00       25.00       25.00    
        25.00       25.00       25.00       25.00       25.00       25.00       25.00       25.00       25.00       25.00    
        25.00       25.00       25.00       25.00       25.00       25.00       25.00       25.00       25.00       25.00    
        25.00       25.00       25.00       25.00       25.00       25.00       25.00       25.00       25.00       25.00    
  39    25.00       25.00       25.00       25.00       25.00       25.00       25.00       25.00       25.00       25.00    
        25.00       25.00       25.00       25.00       25.00       25.00       25.00       25.00       25.00       25.00    
        25.00       25.00       25.00       25.00       25.00       25.00       25.00       25.00       25.00       25.00    
        25.00       25.00       25.00       25.00       25.00       25.00       25.00       25.00       25.00       25.00    
  40    25.00       25.00       25.00       25.00       25.00       25.00       25.00       25.00       25.00       25.00    
        25.00       25.00       25.00       25.00       25.00       25.00       25.00       25.00       25.00       25.00    
        25.00       25.00       25.00       25.00       25.00       25.00       25.00       25.00       25.00       25.00    
        25.00       25.00       25.00       25.00       25.00       25.00       25.00       25.00       25.00       25.00    
1
              HEAD IN LAYER 12 AT END OF TIME STEP 2 IN STRESS PERIOD 3
  ---------------------------------------------------------------------------

            1           2           3           4           5           6           7           8           9          10
           11          12          13          14          15          16          17          18          19          20
           21          22          23          24          25          26          27          28          29          30
           31          32          33          34          35          36          37          38          39          40
 ........................................................................................................................
   1    44.84       43.37       40.60       37.89       35.59       33.67       32.08       30.75       29.64       28.72    
        27.97       27.35       26.85       26.45       26.13       25.88       25.68       25.53       25.40       25.31    
        25.24       25.18       25.14       25.11       25.08       25.06       25.05       25.03       25.03       25.02    
        25.01       25.01       25.01       25.01       25.00       25.00       25.00       25.00       25.00       25.00    
   2    43.37       42.08       39.64       37.23       35.13       33.35       31.85       30.58       29.52       28.63    
        27.90       27.30       26.82       26.43       26.11       25.87       25.67       25.52       25.40       25.31    
        25.23       25.18       25.14       25.10       25.08       25.06       25.05       25.03       25.03       25.02    
        25.01       25.01       25.01       25.01       25.00       25.00       25.00       25.00       25.00       25.00    
   3    40.60       39.64       37.91       36.06       34.32       32.78       31.43       30.27       29.29       28.46    
        27.77       27.21       26.75       26.37       26.08       25.84       25.65       25.50       25.39       25.30    
        25.23       25.17       25.13       25.10       25.08       25.06       25.04       25.03       25.03       25.02    
        25.01       25.01       25.01       25.01       25.00       25.00       25.00       25.00       25.00       25.00    
   4    37.89       37.23       36.06       34.69       33.32       32.04       30.88       29.86       28.98       28.23    
        27.60       27.08       26.65       26.30       26.02       25.80       25.62       25.48       25.37       25.29    
        25.22       25.17       25.13       25.10       25.07       25.06       25.04       25.03       25.02       25.02    
        25.01       25.01       25.01       25.01       25.00       25.00       25.00       25.00       25.00       25.00    
   5    35.59       35.13       34.32       33.32       32.26       31.22       30.25       29.38       28.61       27.95    
        27.39       26.92       26.53       26.21       25.95       25.75       25.58       25.45       25.35       25.27    
        25.21       25.16       25.12       25.09       25.07       25.05       25.04       25.03       25.02       25.02    
        25.01       25.01       25.01       25.01       25.00       25.00       25.00       25.00       25.00       25.00    
   6    33.67       33.35       32.78       32.04       31.22       30.39       29.60       28.87       28.22       27.64    
        27.15       26.74       26.39       26.11       25.88       25.69       25.54       25.42       25.33       25.25    
        25.19       25.15       25.12       25.09       25.07       25.05       25.04       25.03       25.02       25.02    
        25.01       25.01       25.01       25.01       25.00       25.00       25.00       25.00       25.00       25.00    
   7    32.08       31.85       31.43       30.88       30.25       29.60       28.96       28.36       27.81       27.33    
        26.91       26.55       26.25       26.00       25.79       25.63       25.49       25.39       25.30       25.23    
        25.18       25.14       25.11       25.08       25.06       25.05       25.04       25.03       25.02       25.02    
        25.01       25.01       25.01       25.01       25.00       25.00       25.00       25.00       25.00       25.00    
   8    30.75       30.58       30.27       29.86       29.38       28.87       28.36       27.87       27.43       27.02    
        26.67       26.36       26.10       25.89       25.71       25.56       25.44       25.35       25.27       25.21    
        25.17       25.13       25.10       25.08       25.06       25.04       25.03       25.03       25.02       25.02    
        25.01       25.01       25.01       25.00       25.00       25.00       25.00       25.00       25.00       25.00    
   9    29.64       29.52       29.29       28.98       28.61       28.22       27.81       27.43       27.06       26.73    
        26.44       26.18       25.96       25.78       25.62       25.50       25.40       25.31       25.25       25.19    
        25.15       25.12       25.09       25.07       25.05       25.04       25.03       25.02       25.02       25.01    
        25.01       25.01       25.01       25.00       25.00       25.00       25.00       25.00       25.00       25.00    
  10    28.72       28.63       28.46       28.23       27.95       27.64       27.33       27.02       26.73       26.46    
        26.22       26.01       25.83       25.67       25.54       25.44       25.35       25.28       25.22       25.17    
        25.13       25.10       25.08       25.06       25.05       25.04       25.03       25.02       25.02       25.01    
        25.01       25.01       25.01       25.00       25.00       25.00       25.00       25.00       25.00       25.00    
  11    27.97       27.90       27.77       27.60       27.39       27.15       26.91       26.67       26.44       26.22    
        26.03       25.86       25.71       25.58       25.47       25.38       25.30       25.24       25.19       25.15    
        25.12       25.09       25.07       25.06       25.04       25.03       25.03       25.02       25.02       25.01    
        25.01       25.01       25.01       25.00       25.00       25.00       25.00       25.00       25.00       25.00    
  12    27.35       27.30       27.21       27.08       26.92       26.74       26.55       26.36       26.18       26.01    
        25.86       25.72       25.59       25.49       25.40       25.32       25.26       25.21       25.17       25.13    
        25.10       25.08       25.06       25.05       25.04       25.03       25.02       25.02       25.01       25.01    
        25.01       25.01       25.00       25.00       25.00       25.00       25.00       25.00       25.00       25.00    
  13    26.85       26.82       26.75       26.65       26.53       26.39       26.25       26.10       25.96       25.83    
        25.71       25.59       25.50       25.41       25.34       25.27       25.22       25.18       25.14       25.11    
        25.09       25.07       25.06       25.04       25.03       25.03       25.02       25.02       25.01       25.01    
        25.01       25.01       25.00       25.00       25.00       25.00       25.00       25.00       25.00       25.00    
  14    26.45       26.43       26.37       26.30       26.21       26.11       26.00       25.89       25.78       25.67    
        25.58       25.49       25.41       25.34       25.28       25.23       25.19       25.15       25.12       25.10    
        25.08       25.06       25.05       25.04       25.03       25.02       25.02       25.01       25.01       25.01    
        25.01       25.00       25.00       25.00       25.00       25.00       25.00       25.00       25.00       25.00    
  15    26.13       26.11       26.08       26.02       25.95       25.88       25.79       25.71       25.62       25.54    
        25.47       25.40       25.34       25.28       25.23       25.19       25.16       25.13       25.10       25.08    
        25.07       25.05       25.04       25.03       25.03       25.02       25.02       25.01       25.01       25.01    
        25.01       25.00       25.00       25.00       25.00       25.00       25.00       25.00       25.00       25.00    
  16    25.88       25.87       25.84       25.80       25.75       25.69       25.63       25.56       25.50       25.44    
        25.38       25.32       25.27       25.23       25.19       25.16       25.13       25.11       25.09       25.07    
        25.06       25.05       25.04       25.03       25.02       25.02       25.01       25.01       25.01       25.01    
        25.01       25.00       25.00       25.00       25.00       25.00       25.00       25.00       25.00       25.00    
  17    25.68       25.67       25.65       25.62       25.58       25.54       25.49       25.44       25.40       25.35    
        25.30       25.26       25.22       25.19       25.16       25.13       25.11       25.09       25.07       25.06    
        25.05       25.04       25.03       25.02       25.02       25.02       25.01       25.01       25.01       25.01    
        25.00       25.00       25.00       25.00       25.00       25.00       25.00       25.00       25.00       25.00    
  18    25.53       25.52       25.50       25.48       25.45       25.42       25.39       25.35       25.31       25.28    
        25.24       25.21       25.18       25.15       25.13       25.11       25.09       25.07       25.06       25.05    
        25.04       25.03       25.03       25.02       25.02       25.01       25.01       25.01       25.01       25.00    
        25.00       25.00       25.00       25.00       25.00       25.00       25.00       25.00       25.00       25.00    
  19    25.40       25.40       25.39       25.37       25.35       25.33       25.30       25.27       25.25       25.22    
        25.19       25.17       25.14       25.12       25.10       25.09       25.07       25.06       25.05       25.04    
        25.03       25.03       25.02       25.02       25.01       25.01       25.01       25.01       25.01       25.00    
        25.00       25.00       25.00       25.00       25.00       25.00       25.00       25.00       25.00       25.00    
  20    25.31       25.31       25.30       25.29       25.27       25.25       25.23       25.21       25.19       25.17    
        25.15       25.13       25.11       25.10       25.08       25.07       25.06       25.05       25.04       25.03    
        25.03       25.02       25.02       25.01       25.01       25.01       25.01       25.01       25.00       25.00    
        25.00       25.00       25.00       25.00       25.00       25.00       25.00       25.00       25.00       25.00    
  21    25.24       25.23       25.23       25.22       25.21       25.19       25.18       25.17       25.15       25.13    
        25.12       25.10       25.09       25.08       25.07       25.06       25.05       25.04       25.03       25.03    
        25.02       25.02       25.01       25.01       25.01       25.01       25.01       25.00       25.00       25.00    
        25.00       25.00       25.00       25.00       25.00       25.00       25.00       25.00       25.00       25.00    
  22    25.18       25.18       25.17       25.17       25.16       25.15       25.14       25.13       25.12       25.10    
        25.09       25.08       25.07       25.06       25.05       25.05       25.04       25.03       25.03       25.02    
        25.02       25.02       25.01       25.01       25.01       25.01       25.01       25.00       25.00       25.00    
        25.00       25.00       25.00       25.00       25.00       25.00       25.00       25.00       25.00       25.00    
  23    25.14       25.14       25.13       25.13       25.12       25.12       25.11       25.10       25.09       25.08    
        25.07       25.06       25.06       25.05       25.04       25.04       25.03       25.03       25.02       25.02    
        25.01       25.01       25.01       25.01       25.01       25.01       25.00       25.00       25.00       25.00    
        25.00       25.00       25.00       25.00       25.00       25.00       25.00       25.00       25.00       25.00    
  24    25.11       25.10       25.10       25.10       25.09       25.09       25.08       25.08       25.07       25.06    
        25.06       25.05       25.04       25.04       25.03       25.03       25.02       25.02       25.02       25.01    
        25.01       25.01       25.01       25.01       25.01       25.00       25.00       25.00       25.00       25.00    
        25.00       25.00       25.00       25.00       25.00       25.00       25.00       25.00       25.00       25.00    
  25    25.08       25.08       25.08       25.07       25.07       25.07       25.06       25.06       25.05       25.05    
        25.04       25.04       25.03       25.03       25.03       25.02       25.02       25.02       25.01       25.01    
        25.01       25.01       25.01       25.01       25.00       25.00       25.00       25.00       25.00       25.00    
        25.00       25.00       25.00       25.00       25.00       25.00       25.00       25.00       25.00       25.00    
  26    25.06       25.06       25.06       25.06       25.05       25.05       25.05       25.04       25.04       25.04    
        25.03       25.03       25.03       25.02       25.02       25.02       25.02       25.01       25.01       25.01    
        25.01       25.01       25.01       25.00       25.00       25.00       25.00       25.00       25.00       25.00    
        25.00       25.00       25.00       25.00       25.00       25.00       25.00       25.00       25.00       25.00    
  27    25.05       25.05       25.04       25.04       25.04       25.04       25.04       25.03       25.03       25.03    
        25.03       25.02       25.02       25.02       25.02       25.01       25.01       25.01       25.01       25.01    
        25.01       25.01       25.00       25.00       25.00       25.00       25.00       25.00       25.00       25.00    
        25.00       25.00       25.00       25.00       25.00       25.00       25.00       25.00       25.00       25.00    
  28    25.03       25.03       25.03       25.03       25.03       25.03       25.03       25.03       25.02       25.02    
        25.02       25.02       25.02       25.01       25.01       25.01       25.01       25.01       25.01       25.01    
        25.00       25.00       25.00       25.00       25.00       25.00       25.00       25.00       25.00       25.00    
        25.00       25.00       25.00       25.00       25.00       25.00       25.00       25.00       25.00       25.00    
  29    25.03       25.03       25.03       25.02       25.02       25.02       25.02       25.02       25.02       25.02    
        25.02       25.01       25.01       25.01       25.01       25.01       25.01       25.01       25.01       25.00    
        25.00       25.00       25.00       25.00       25.00       25.00       25.00       25.00       25.00       25.00    
        25.00       25.00       25.00       25.00       25.00       25.00       25.00       25.00       25.00       25.00    
  30    25.02       25.02       25.02       25.02       25.02       25.02       25.02       25.02       25.01       25.01    
        25.01       25.01       25.01       25.01       25.01       25.01       25.01       25.00       25.00       25.00    
        25.00       25.00       25.00       25.00       25.00       25.00       25.00       25.00       25.00       25.00    
        25.00       25.00       25.00       25.00       25.00       25.00       25.00       25.00       25.00       25.00    
  31    25.01       25.01       25.01       25.01       25.01       25.01       25.01       25.01       25.01       25.01    
        25.01       25.01       25.01       25.01       25.01       25.01       25.00       25.00       25.00       25.00    
        25.00       25.00       25.00       25.00       25.00       25.00       25.00       25.00       25.00       25.00    
        25.00       25.00       25.00       25.00       25.00       25.00       25.00       25.00       25.00       25.00    
  32    25.01       25.01       25.01       25.01       25.01       25.01       25.01       25.01       25.01       25.01    
        25.01       25.01       25.01       25.00       25.00       25.00       25.00       25.00       25.00       25.00    
        25.00       25.00       25.00       25.00       25.00       25.00       25.00       25.00       25.00       25.00    
        25.00       25.00       25.00       25.00       25.00       25.00       25.00       25.00       25.00       25.00    
  33    25.01       25.01       25.01       25.01       25.01       25.01       25.01       25.01       25.01       25.01    
        25.01       25.00       25.00       25.00       25.00       25.00       25.00       25.00       25.00       25.00    
        25.00       25.00       25.00       25.00       25.00       25.00       25.00       25.00       25.00       25.00    
        25.00       25.00       25.00       25.00       25.00       25.00       25.00       25.00       25.00       25.00    
  34    25.01       25.01       25.01       25.01       25.01       25.01       25.01       25.00       25.00       25.00    
        25.00       25.00       25.00       25.00       25.00       25.00       25.00       25.00       25.00       25.00    
        25.00       25.00       25.00       25.00       25.00       25.00       25.00       25.00       25.00       25.00    
        25.00       25.00       25.00       25.00       25.00       25.00       25.00       25.00       25.00       25.00    
  35    25.00       25.00       25.00       25.00       25.00       25.00       25.00       25.00       25.00       25.00    
        25.00       25.00       25.00       25.00       25.00       25.00       25.00       25.00       25.00       25.00    
        25.00       25.00       25.00       25.00       25.00       25.00       25.00       25.00       25.00       25.00    
        25.00       25.00       25.00       25.00       25.00       25.00       25.00       25.00       25.00       25.00    
  36    25.00       25.00       25.00       25.00       25.00       25.00       25.00       25.00       25.00       25.00    
        25.00       25.00       25.00       25.00       25.00       25.00       25.00       25.00       25.00       25.00    
        25.00       25.00       25.00       25.00       25.00       25.00       25.00       25.00       25.00       25.00    
        25.00       25.00       25.00       25.00       25.00       25.00       25.00       25.00       25.00       25.00    
  37    25.00       25.00       25.00       25.00       25.00       25.00       25.00       25.00       25.00       25.00    
        25.00       25.00       25.00       25.00       25.00       25.00       25.00       25.00       25.00       25.00    
        25.00       25.00       25.00       25.00       25.00       25.00       25.00       25.00       25.00       25.00    
        25.00       25.00       25.00       25.00       25.00       25.00       25.00       25.00       25.00       25.00    
  38    25.00       25.00       25.00       25.00       25.00       25.00       25.00       25.00       25.00       25.00    
        25.00       25.00       25.00       25.00       25.00       25.00       25.00       25.00       25.00       25.00    
        25.00       25.00       25.00       25.00       25.00       25.00       25.00       25.00       25.00       25.00    
        25.00       25.00       25.00       25.00       25.00       25.00       25.00       25.00       25.00       25.00    
  39    25.00       25.00       25.00       25.00       25.00       25.00       25.00       25.00       25.00       25.00    
        25.00       25.00       25.00       25.00       25.00       25.00       25.00       25.00       25.00       25.00    
        25.00       25.00       25.00       25.00       25.00       25.00       25.00       25.00       25.00       25.00    
        25.00       25.00       25.00       25.00       25.00       25.00       25.00       25.00       25.00       25.00    
  40    25.00       25.00       25.00       25.00       25.00       25.00       25.00       25.00       25.00       25.00    
        25.00       25.00       25.00       25.00       25.00       25.00       25.00       25.00       25.00       25.00    
        25.00       25.00       25.00       25.00       25.00       25.00       25.00       25.00       25.00       25.00    
        25.00       25.00       25.00       25.00       25.00       25.00       25.00       25.00       25.00       25.00    
1
              HEAD IN LAYER 13 AT END OF TIME STEP 2 IN STRESS PERIOD 3
  ---------------------------------------------------------------------------

            1           2           3           4           5           6           7           8           9          10
           11          12          13          14          15          16          17          18          19          20
           21          22          23          24          25          26          27          28          29          30
           31          32          33          34          35          36          37          38          39          40
 ........................................................................................................................
   1    44.65       43.21       40.54       37.88       35.58       33.67       32.08       30.75       29.64       28.73    
        27.97       27.36       26.86       26.46       26.14       25.88       25.68       25.53       25.41       25.31    
        25.24       25.18       25.14       25.11       25.08       25.06       25.05       25.03       25.03       25.02    
        25.01       25.01       25.01       25.01       25.00       25.00       25.00       25.00       25.00       25.00    
   2    43.21       41.95       39.59       37.22       35.13       33.35       31.85       30.59       29.52       28.64    
        27.91       27.31       26.82       26.43       26.12       25.87       25.67       25.52       25.40       25.31    
        25.24       25.18       25.14       25.10       25.08       25.06       25.05       25.03       25.03       25.02    
        25.01       25.01       25.01       25.01       25.00       25.00       25.00       25.00       25.00       25.00    
   3    40.54       39.59       37.90       36.05       34.32       32.78       31.43       30.28       29.29       28.47    
        27.78       27.21       26.75       26.38       26.08       25.84       25.65       25.50       25.39       25.30    
        25.23       25.18       25.13       25.10       25.08       25.06       25.04       25.03       25.03       25.02    
        25.01       25.01       25.01       25.01       25.00       25.00       25.00       25.00       25.00       25.00    
   4    37.88       37.22       36.05       34.69       33.32       32.04       30.88       29.86       28.98       28.23    
        27.60       27.08       26.65       26.30       26.02       25.80       25.62       25.48       25.37       25.29    
        25.22       25.17       25.13       25.10       25.07       25.06       25.04       25.03       25.02       25.02    
        25.01       25.01       25.01       25.01       25.00       25.00       25.00       25.00       25.00       25.00    
   5    35.58       35.13       34.32       33.32       32.26       31.22       30.25       29.38       28.62       27.95    
        27.39       26.92       26.53       26.21       25.96       25.75       25.58       25.45       25.35       25.27    
        25.21       25.16       25.12       25.09       25.07       25.05       25.04       25.03       25.02       25.02    
        25.01       25.01       25.01       25.01       25.00       25.00       25.00       25.00       25.00       25.00    
   6    33.67       33.35       32.78       32.04       31.22       30.40       29.60       28.87       28.22       27.65    
        27.16       26.74       26.40       26.11       25.88       25.69       25.54       25.42       25.33       25.25    
        25.20       25.15       25.12       25.09       25.07       25.05       25.04       25.03       25.02       25.02    
        25.01       25.01       25.01       25.01       25.00       25.00       25.00       25.00       25.00       25.00    
   7    32.08       31.85       31.43       30.88       30.25       29.60       28.96       28.36       27.82       27.33    
        26.91       26.55       26.25       26.00       25.80       25.63       25.49       25.39       25.30       25.23    
        25.18       25.14       25.11       25.08       25.06       25.05       25.04       25.03       25.02       25.02    
        25.01       25.01       25.01       25.01       25.00       25.00       25.00       25.00       25.00       25.00    
   8    30.75       30.59       30.28       29.86       29.38       28.87       28.36       27.88       27.43       27.03    
        26.67       26.37       26.11       25.89       25.71       25.56       25.45       25.35       25.27       25.21    
        25.17       25.13       25.10       25.08       25.06       25.04       25.03       25.03       25.02       25.02    
        25.01       25.01       25.01       25.00       25.00       25.00       25.00       25.00       25.00       25.00    
   9    29.64       29.52       29.29       28.98       28.62       28.22       27.82       27.43       27.07       26.73    
        26.44       26.18       25.97       25.78       25.63       25.50       25.40       25.31       25.25       25.19    
        25.15       25.12       25.09       25.07       25.05       25.04       25.03       25.02       25.02       25.01    
        25.01       25.01       25.01       25.00       25.00       25.00       25.00       25.00       25.00       25.00    
  10    28.73       28.64       28.47       28.23       27.95       27.65       27.33       27.03       26.73       26.47    
        26.23       26.01       25.83       25.68       25.55       25.44       25.35       25.28       25.22       25.17    
        25.13       25.10       25.08       25.06       25.05       25.04       25.03       25.02       25.02       25.01    
        25.01       25.01       25.01       25.00       25.00       25.00       25.00       25.00       25.00       25.00    
  11    27.97       27.91       27.78       27.60       27.39       27.16       26.91       26.67       26.44       26.23    
        26.03       25.86       25.71       25.58       25.47       25.38       25.30       25.24       25.19       25.15    
        25.12       25.09       25.07       25.06       25.04       25.03       25.03       25.02       25.02       25.01    
        25.01       25.01       25.01       25.00       25.00       25.00       25.00       25.00       25.00       25.00    
  12    27.36       27.31       27.21       27.08       26.92       26.74       26.55       26.37       26.18       26.01    
        25.86       25.72       25.60       25.49       25.40       25.32       25.26       25.21       25.17       25.13    
        25.10       25.08       25.06       25.05       25.04       25.03       25.02       25.02       25.01       25.01    
        25.01       25.01       25.00       25.00       25.00       25.00       25.00       25.00       25.00       25.00    
  13    26.86       26.82       26.75       26.65       26.53       26.40       26.25       26.11       25.97       25.83    
        25.71       25.60       25.50       25.41       25.34       25.28       25.22       25.18       25.14       25.11    
        25.09       25.07       25.06       25.04       25.03       25.03       25.02       25.02       25.01       25.01    
        25.01       25.01       25.00       25.00       25.00       25.00       25.00       25.00       25.00       25.00    
  14    26.46       26.43       26.38       26.30       26.21       26.11       26.00       25.89       25.78       25.68    
        25.58       25.49       25.41       25.34       25.28       25.23       25.19       25.15       25.12       25.10    
        25.08       25.06       25.05       25.04       25.03       25.02       25.02       25.01       25.01       25.01    
        25.01       25.00       25.00       25.00       25.00       25.00       25.00       25.00       25.00       25.00    
  15    26.14       26.12       26.08       26.02       25.96       25.88       25.80       25.71       25.63       25.55    
        25.47       25.40       25.34       25.28       25.23       25.19       25.16       25.13       25.10       25.08    
        25.07       25.05       25.04       25.03       25.03       25.02       25.02       25.01       25.01       25.01    
        25.01       25.00       25.00       25.00       25.00       25.00       25.00       25.00       25.00       25.00    
  16    25.88       25.87       25.84       25.80       25.75       25.69       25.63       25.56       25.50       25.44    
        25.38       25.32       25.28       25.23       25.19       25.16       25.13       25.11       25.09       25.07    
        25.06       25.05       25.04       25.03       25.02       25.02       25.01       25.01       25.01       25.01    
        25.01       25.00       25.00       25.00       25.00       25.00       25.00       25.00       25.00       25.00    
  17    25.68       25.67       25.65       25.62       25.58       25.54       25.49       25.45       25.40       25.35    
        25.30       25.26       25.22       25.19       25.16       25.13       25.11       25.09       25.07       25.06    
        25.05       25.04       25.03       25.02       25.02       25.02       25.01       25.01       25.01       25.01    
        25.00       25.00       25.00       25.00       25.00       25.00       25.00       25.00       25.00       25.00    
  18    25.53       25.52       25.50       25.48       25.45       25.42       25.39       25.35       25.31       25.28    
        25.24       25.21       25.18       25.15       25.13       25.11       25.09       25.07       25.06       25.05    
        25.04       25.03       25.03       25.02       25.02       25.01       25.01       25.01       25.01       25.00    
        25.00       25.00       25.00       25.00       25.00       25.00       25.00       25.00       25.00       25.00    
  19    25.41       25.40       25.39       25.37       25.35       25.33       25.30       25.27       25.25       25.22    
        25.19       25.17       25.14       25.12       25.10       25.09       25.07       25.06       25.05       25.04    
        25.03       25.03       25.02       25.02       25.01       25.01       25.01       25.01       25.01       25.00    
        25.00       25.00       25.00       25.00       25.00       25.00       25.00       25.00       25.00       25.00    
  20    25.31       25.31       25.30       25.29       25.27       25.25       25.23       25.21       25.19       25.17    
        25.15       25.13       25.11       25.10       25.08       25.07       25.06       25.05       25.04       25.03    
        25.03       25.02       25.02       25.01       25.01       25.01       25.01       25.01       25.00       25.00    
        25.00       25.00       25.00       25.00       25.00       25.00       25.00       25.00       25.00       25.00    
  21    25.24       25.24       25.23       25.22       25.21       25.20       25.18       25.17       25.15       25.13    
        25.12       25.10       25.09       25.08       25.07       25.06       25.05       25.04       25.03       25.03    
        25.02       25.02       25.01       25.01       25.01       25.01       25.01       25.00       25.00       25.00    
        25.00       25.00       25.00       25.00       25.00       25.00       25.00       25.00       25.00       25.00    
  22    25.18       25.18       25.18       25.17       25.16       25.15       25.14       25.13       25.12       25.10    
        25.09       25.08       25.07       25.06       25.05       25.05       25.04       25.03       25.03       25.02    
        25.02       25.02       25.01       25.01       25.01       25.01       25.01       25.00       25.00       25.00    
        25.00       25.00       25.00       25.00       25.00       25.00       25.00       25.00       25.00       25.00    
  23    25.14       25.14       25.13       25.13       25.12       25.12       25.11       25.10       25.09       25.08    
        25.07       25.06       25.06       25.05       25.04       25.04       25.03       25.03       25.02       25.02    
        25.01       25.01       25.01       25.01       25.01       25.01       25.00       25.00       25.00       25.00    
        25.00       25.00       25.00       25.00       25.00       25.00       25.00       25.00       25.00       25.00    
  24    25.11       25.10       25.10       25.10       25.09       25.09       25.08       25.08       25.07       25.06    
        25.06       25.05       25.04       25.04       25.03       25.03       25.02       25.02       25.02       25.01    
        25.01       25.01       25.01       25.01       25.01       25.00       25.00       25.00       25.00       25.00    
        25.00       25.00       25.00       25.00       25.00       25.00       25.00       25.00       25.00       25.00    
  25    25.08       25.08       25.08       25.07       25.07       25.07       25.06       25.06       25.05       25.05    
        25.04       25.04       25.03       25.03       25.03       25.02       25.02       25.02       25.01       25.01    
        25.01       25.01       25.01       25.01       25.00       25.00       25.00       25.00       25.00       25.00    
        25.00       25.00       25.00       25.00       25.00       25.00       25.00       25.00       25.00       25.00    
  26    25.06       25.06       25.06       25.06       25.05       25.05       25.05       25.04       25.04       25.04    
        25.03       25.03       25.03       25.02       25.02       25.02       25.02       25.01       25.01       25.01    
        25.01       25.01       25.01       25.00       25.00       25.00       25.00       25.00       25.00       25.00    
        25.00       25.00       25.00       25.00       25.00       25.00       25.00       25.00       25.00       25.00    
  27    25.05       25.05       25.04       25.04       25.04       25.04       25.04       25.03       25.03       25.03    
        25.03       25.02       25.02       25.02       25.02       25.01       25.01       25.01       25.01       25.01    
        25.01       25.01       25.00       25.00       25.00       25.00       25.00       25.00       25.00       25.00    
        25.00       25.00       25.00       25.00       25.00       25.00       25.00       25.00       25.00       25.00    
  28    25.03       25.03       25.03       25.03       25.03       25.03       25.03       25.03       25.02       25.02    
        25.02       25.02       25.02       25.01       25.01       25.01       25.01       25.01       25.01       25.01    
        25.00       25.00       25.00       25.00       25.00       25.00       25.00       25.00       25.00       25.00    
        25.00       25.00       25.00       25.00       25.00       25.00       25.00       25.00       25.00       25.00    
  29    25.03       25.03       25.03       25.02       25.02       25.02       25.02       25.02       25.02       25.02    
        25.02       25.01       25.01       25.01       25.01       25.01       25.01       25.01       25.01       25.00    
        25.00       25.00       25.00       25.00       25.00       25.00       25.00       25.00       25.00       25.00    
        25.00       25.00       25.00       25.00       25.00       25.00       25.00       25.00       25.00       25.00    
  30    25.02       25.02       25.02       25.02       25.02       25.02       25.02       25.02       25.01       25.01    
        25.01       25.01       25.01       25.01       25.01       25.01       25.01       25.00       25.00       25.00    
        25.00       25.00       25.00       25.00       25.00       25.00       25.00       25.00       25.00       25.00    
        25.00       25.00       25.00       25.00       25.00       25.00       25.00       25.00       25.00       25.00    
  31    25.01       25.01       25.01       25.01       25.01       25.01       25.01       25.01       25.01       25.01    
        25.01       25.01       25.01       25.01       25.01       25.01       25.00       25.00       25.00       25.00    
        25.00       25.00       25.00       25.00       25.00       25.00       25.00       25.00       25.00       25.00    
        25.00       25.00       25.00       25.00       25.00       25.00       25.00       25.00       25.00       25.00    
  32    25.01       25.01       25.01       25.01       25.01       25.01       25.01       25.01       25.01       25.01    
        25.01       25.01       25.01       25.00       25.00       25.00       25.00       25.00       25.00       25.00    
        25.00       25.00       25.00       25.00       25.00       25.00       25.00       25.00       25.00       25.00    
        25.00       25.00       25.00       25.00       25.00       25.00       25.00       25.00       25.00       25.00    
  33    25.01       25.01       25.01       25.01       25.01       25.01       25.01       25.01       25.01       25.01    
        25.01       25.00       25.00       25.00       25.00       25.00       25.00       25.00       25.00       25.00    
        25.00       25.00       25.00       25.00       25.00       25.00       25.00       25.00       25.00       25.00    
        25.00       25.00       25.00       25.00       25.00       25.00       25.00       25.00       25.00       25.00    
  34    25.01       25.01       25.01       25.01       25.01       25.01       25.01       25.00       25.00       25.00    
        25.00       25.00       25.00       25.00       25.00       25.00       25.00       25.00       25.00       25.00    
        25.00       25.00       25.00       25.00       25.00       25.00       25.00       25.00       25.00       25.00    
        25.00       25.00       25.00       25.00       25.00       25.00       25.00       25.00       25.00       25.00    
  35    25.00       25.00       25.00       25.00       25.00       25.00       25.00       25.00       25.00       25.00    
        25.00       25.00       25.00       25.00       25.00       25.00       25.00       25.00       25.00       25.00    
        25.00       25.00       25.00       25.00       25.00       25.00       25.00       25.00       25.00       25.00    
        25.00       25.00       25.00       25.00       25.00       25.00       25.00       25.00       25.00       25.00    
  36    25.00       25.00       25.00       25.00       25.00       25.00       25.00       25.00       25.00       25.00    
        25.00       25.00       25.00       25.00       25.00       25.00       25.00       25.00       25.00       25.00    
        25.00       25.00       25.00       25.00       25.00       25.00       25.00       25.00       25.00       25.00    
        25.00       25.00       25.00       25.00       25.00       25.00       25.00       25.00       25.00       25.00    
  37    25.00       25.00       25.00       25.00       25.00       25.00       25.00       25.00       25.00       25.00    
        25.00       25.00       25.00       25.00       25.00       25.00       25.00       25.00       25.00       25.00    
        25.00       25.00       25.00       25.00       25.00       25.00       25.00       25.00       25.00       25.00    
        25.00       25.00       25.00       25.00       25.00       25.00       25.00       25.00       25.00       25.00    
  38    25.00       25.00       25.00       25.00       25.00       25.00       25.00       25.00       25.00       25.00    
        25.00       25.00       25.00       25.00       25.00       25.00       25.00       25.00       25.00       25.00    
        25.00       25.00       25.00       25.00       25.00       25.00       25.00       25.00       25.00       25.00    
        25.00       25.00       25.00       25.00       25.00       25.00       25.00       25.00       25.00       25.00    
  39    25.00       25.00       25.00       25.00       25.00       25.00       25.00       25.00       25.00       25.00    
        25.00       25.00       25.00       25.00       25.00       25.00       25.00       25.00       25.00       25.00    
        25.00       25.00       25.00       25.00       25.00       25.00       25.00       25.00       25.00       25.00    
        25.00       25.00       25.00       25.00       25.00       25.00       25.00       25.00       25.00       25.00    
  40    25.00       25.00       25.00       25.00       25.00       25.00       25.00       25.00       25.00       25.00    
        25.00       25.00       25.00       25.00       25.00       25.00       25.00       25.00       25.00       25.00    
        25.00       25.00       25.00       25.00       25.00       25.00       25.00       25.00       25.00       25.00    
        25.00       25.00       25.00       25.00       25.00       25.00       25.00       25.00       25.00       25.00    
1
              HEAD IN LAYER 14 AT END OF TIME STEP 2 IN STRESS PERIOD 3
  ---------------------------------------------------------------------------

            1           2           3           4           5           6           7           8           9          10
           11          12          13          14          15          16          17          18          19          20
           21          22          23          24          25          26          27          28          29          30
           31          32          33          34          35          36          37          38          39          40
 ........................................................................................................................
   1    44.56       43.14       40.51       37.87       35.58       33.67       32.08       30.75       29.65       28.73    
        27.97       27.36       26.86       26.46       26.14       25.88       25.69       25.53       25.41       25.31    
        25.24       25.18       25.14       25.11       25.08       25.06       25.05       25.03       25.03       25.02    
        25.01       25.01       25.01       25.01       25.00       25.00       25.00       25.00       25.00       25.00    
   2    43.14       41.88       39.57       37.21       35.13       33.35       31.85       30.59       29.52       28.64    
        27.91       27.31       26.82       26.43       26.12       25.87       25.67       25.52       25.40       25.31    
        25.24       25.18       25.14       25.10       25.08       25.06       25.05       25.03       25.03       25.02    
        25.01       25.01       25.01       25.01       25.00       25.00       25.00       25.00       25.00       25.00    
   3    40.51       39.57       37.88       36.05       34.32       32.78       31.44       30.28       29.30       28.47    
        27.78       27.21       26.75       26.38       26.08       25.84       25.65       25.51       25.39       25.30    
        25.23       25.18       25.13       25.10       25.08       25.06       25.04       25.03       25.03       25.02    
        25.01       25.01       25.01       25.01       25.00       25.00       25.00       25.00       25.00       25.00    
   4    37.87       37.21       36.05       34.69       33.32       32.04       30.88       29.87       28.99       28.24    
        27.61       27.08       26.65       26.31       26.03       25.80       25.62       25.48       25.37       25.29    
        25.22       25.17       25.13       25.10       25.07       25.06       25.04       25.03       25.02       25.02    
        25.01       25.01       25.01       25.01       25.00       25.00       25.00       25.00       25.00       25.00    
   5    35.58       35.13       34.32       33.32       32.26       31.22       30.26       29.39       28.62       27.96    
        27.39       26.92       26.53       26.21       25.96       25.75       25.59       25.45       25.35       25.27    
        25.21       25.16       25.12       25.09       25.07       25.05       25.04       25.03       25.02       25.02    
        25.01       25.01       25.01       25.01       25.00       25.00       25.00       25.00       25.00       25.00    
   6    33.67       33.35       32.78       32.04       31.22       30.40       29.61       28.88       28.22       27.65    
        27.16       26.74       26.40       26.11       25.88       25.69       25.54       25.42       25.33       25.25    
        25.20       25.15       25.12       25.09       25.07       25.05       25.04       25.03       25.02       25.02    
        25.01       25.01       25.01       25.01       25.00       25.00       25.00       25.00       25.00       25.00    
   7    32.08       31.85       31.44       30.88       30.26       29.61       28.97       28.37       27.82       27.34    
        26.92       26.56       26.25       26.00       25.80       25.63       25.50       25.39       25.30       25.23    
        25.18       25.14       25.11       25.08       25.06       25.05       25.04       25.03       25.02       25.02    
        25.01       25.01       25.01       25.01       25.00       25.00       25.00       25.00       25.00       25.00    
   8    30.75       30.59       30.28       29.87       29.39       28.88       28.37       27.88       27.43       27.03    
        26.67       26.37       26.11       25.89       25.71       25.57       25.45       25.35       25.27       25.21    
        25.17       25.13       25.10       25.08       25.06       25.04       25.03       25.03       25.02       25.02    
        25.01       25.01       25.01       25.00       25.00       25.00       25.00       25.00       25.00       25.00    
   9    29.65       29.52       29.30       28.99       28.62       28.22       27.82       27.43       27.07       26.74    
        26.44       26.19       25.97       25.78       25.63       25.50       25.40       25.31       25.25       25.19    
        25.15       25.12       25.09       25.07       25.05       25.04       25.03       25.02       25.02       25.01    
        25.01       25.01       25.01       25.00       25.00       25.00       25.00       25.00       25.00       25.00    
  10    28.73       28.64       28.47       28.24       27.96       27.65       27.34       27.03       26.74       26.47    
        26.23       26.02       25.83       25.68       25.55       25.44       25.35       25.28       25.22       25.17    
        25.13       25.10       25.08       25.06       25.05       25.04       25.03       25.02       25.02       25.01    
        25.01       25.01       25.01       25.00       25.00       25.00       25.00       25.00       25.00       25.00    
  11    27.97       27.91       27.78       27.61       27.39       27.16       26.92       26.67       26.44       26.23    
        26.03       25.86       25.71       25.58       25.47       25.38       25.30       25.24       25.19       25.15    
        25.12       25.09       25.07       25.06       25.04       25.03       25.03       25.02       25.02       25.01    
        25.01       25.01       25.01       25.00       25.00       25.00       25.00       25.00       25.00       25.00    
  12    27.36       27.31       27.21       27.08       26.92       26.74       26.56       26.37       26.19       26.02    
        25.86       25.72       25.60       25.49       25.40       25.33       25.26       25.21       25.17       25.13    
        25.10       25.08       25.06       25.05       25.04       25.03       25.02       25.02       25.01       25.01    
        25.01       25.01       25.00       25.00       25.00       25.00       25.00       25.00       25.00       25.00    
  13    26.86       26.82       26.75       26.65       26.53       26.40       26.25       26.11       25.97       25.83    
        25.71       25.60       25.50       25.41       25.34       25.28       25.22       25.18       25.14       25.11    
        25.09       25.07       25.06       25.04       25.03       25.03       25.02       25.02       25.01       25.01    
        25.01       25.01       25.00       25.00       25.00       25.00       25.00       25.00       25.00       25.00    
  14    26.46       26.43       26.38       26.31       26.21       26.11       26.00       25.89       25.78       25.68    
        25.58       25.49       25.41       25.34       25.28       25.23       25.19       25.15       25.12       25.10    
        25.08       25.06       25.05       25.04       25.03       25.02       25.02       25.01       25.01       25.01    
        25.01       25.01       25.00       25.00       25.00       25.00       25.00       25.00       25.00       25.00    
  15    26.14       26.12       26.08       26.03       25.96       25.88       25.80       25.71       25.63       25.55    
        25.47       25.40       25.34       25.28       25.24       25.19       25.16       25.13       25.10       25.08    
        25.07       25.05       25.04       25.03       25.03       25.02       25.02       25.01       25.01       25.01    
        25.01       25.00       25.00       25.00       25.00       25.00       25.00       25.00       25.00       25.00    
  16    25.88       25.87       25.84       25.80       25.75       25.69       25.63       25.57       25.50       25.44    
        25.38       25.33       25.28       25.23       25.19       25.16       25.13       25.11       25.09       25.07    
        25.06       25.05       25.04       25.03       25.02       25.02       25.01       25.01       25.01       25.01    
        25.01       25.00       25.00       25.00       25.00       25.00       25.00       25.00       25.00       25.00    
  17    25.69       25.67       25.65       25.62       25.59       25.54       25.50       25.45       25.40       25.35    
        25.30       25.26       25.22       25.19       25.16       25.13       25.11       25.09       25.07       25.06    
        25.05       25.04       25.03       25.02       25.02       25.02       25.01       25.01       25.01       25.01    
        25.00       25.00       25.00       25.00       25.00       25.00       25.00       25.00       25.00       25.00    
  18    25.53       25.52       25.51       25.48       25.45       25.42       25.39       25.35       25.31       25.28    
        25.24       25.21       25.18       25.15       25.13       25.11       25.09       25.07       25.06       25.05    
        25.04       25.03       25.03       25.02       25.02       25.01       25.01       25.01       25.01       25.00    
        25.00       25.00       25.00       25.00       25.00       25.00       25.00       25.00       25.00       25.00    
  19    25.41       25.40       25.39       25.37       25.35       25.33       25.30       25.27       25.25       25.22    
        25.19       25.17       25.14       25.12       25.10       25.09       25.07       25.06       25.05       25.04    
        25.03       25.03       25.02       25.02       25.01       25.01       25.01       25.01       25.01       25.00    
        25.00       25.00       25.00       25.00       25.00       25.00       25.00       25.00       25.00       25.00    
  20    25.31       25.31       25.30       25.29       25.27       25.25       25.23       25.21       25.19       25.17    
        25.15       25.13       25.11       25.10       25.08       25.07       25.06       25.05       25.04       25.03    
        25.03       25.02       25.02       25.01       25.01       25.01       25.01       25.01       25.00       25.00    
        25.00       25.00       25.00       25.00       25.00       25.00       25.00       25.00       25.00       25.00    
  21    25.24       25.24       25.23       25.22       25.21       25.20       25.18       25.17       25.15       25.13    
        25.12       25.10       25.09       25.08       25.07       25.06       25.05       25.04       25.03       25.03    
        25.02       25.02       25.01       25.01       25.01       25.01       25.01       25.00       25.00       25.00    
        25.00       25.00       25.00       25.00       25.00       25.00       25.00       25.00       25.00       25.00    
  22    25.18       25.18       25.18       25.17       25.16       25.15       25.14       25.13       25.12       25.10    
        25.09       25.08       25.07       25.06       25.05       25.05       25.04       25.03       25.03       25.02    
        25.02       25.02       25.01       25.01       25.01       25.01       25.01       25.00       25.00       25.00    
        25.00       25.00       25.00       25.00       25.00       25.00       25.00       25.00       25.00       25.00    
  23    25.14       25.14       25.13       25.13       25.12       25.12       25.11       25.10       25.09       25.08    
        25.07       25.06       25.06       25.05       25.04       25.04       25.03       25.03       25.02       25.02    
        25.01       25.01       25.01       25.01       25.01       25.01       25.00       25.00       25.00       25.00    
        25.00       25.00       25.00       25.00       25.00       25.00       25.00       25.00       25.00       25.00    
  24    25.11       25.10       25.10       25.10       25.09       25.09       25.08       25.08       25.07       25.06    
        25.06       25.05       25.04       25.04       25.03       25.03       25.02       25.02       25.02       25.01    
        25.01       25.01       25.01       25.01       25.01       25.00       25.00       25.00       25.00       25.00    
        25.00       25.00       25.00       25.00       25.00       25.00       25.00       25.00       25.00       25.00    
  25    25.08       25.08       25.08       25.07       25.07       25.07       25.06       25.06       25.05       25.05    
        25.04       25.04       25.03       25.03       25.03       25.02       25.02       25.02       25.01       25.01    
        25.01       25.01       25.01       25.01       25.00       25.00       25.00       25.00       25.00       25.00    
        25.00       25.00       25.00       25.00       25.00       25.00       25.00       25.00       25.00       25.00    
  26    25.06       25.06       25.06       25.06       25.05       25.05       25.05       25.04       25.04       25.04    
        25.03       25.03       25.03       25.02       25.02       25.02       25.02       25.01       25.01       25.01    
        25.01       25.01       25.01       25.00       25.00       25.00       25.00       25.00       25.00       25.00    
        25.00       25.00       25.00       25.00       25.00       25.00       25.00       25.00       25.00       25.00    
  27    25.05       25.05       25.04       25.04       25.04       25.04       25.04       25.03       25.03       25.03    
        25.03       25.02       25.02       25.02       25.02       25.01       25.01       25.01       25.01       25.01    
        25.01       25.01       25.00       25.00       25.00       25.00       25.00       25.00       25.00       25.00    
        25.00       25.00       25.00       25.00       25.00       25.00       25.00       25.00       25.00       25.00    
  28    25.03       25.03       25.03       25.03       25.03       25.03       25.03       25.03       25.02       25.02    
        25.02       25.02       25.02       25.01       25.01       25.01       25.01       25.01       25.01       25.01    
        25.00       25.00       25.00       25.00       25.00       25.00       25.00       25.00       25.00       25.00    
        25.00       25.00       25.00       25.00       25.00       25.00       25.00       25.00       25.00       25.00    
  29    25.03       25.03       25.03       25.02       25.02       25.02       25.02       25.02       25.02       25.02    
        25.02       25.01       25.01       25.01       25.01       25.01       25.01       25.01       25.01       25.00    
        25.00       25.00       25.00       25.00       25.00       25.00       25.00       25.00       25.00       25.00    
        25.00       25.00       25.00       25.00       25.00       25.00       25.00       25.00       25.00       25.00    
  30    25.02       25.02       25.02       25.02       25.02       25.02       25.02       25.02       25.01       25.01    
        25.01       25.01       25.01       25.01       25.01       25.01       25.01       25.00       25.00       25.00    
        25.00       25.00       25.00       25.00       25.00       25.00       25.00       25.00       25.00       25.00    
        25.00       25.00       25.00       25.00       25.00       25.00       25.00       25.00       25.00       25.00    
  31    25.01       25.01       25.01       25.01       25.01       25.01       25.01       25.01       25.01       25.01    
        25.01       25.01       25.01       25.01       25.01       25.01       25.00       25.00       25.00       25.00    
        25.00       25.00       25.00       25.00       25.00       25.00       25.00       25.00       25.00       25.00    
        25.00       25.00       25.00       25.00       25.00       25.00       25.00       25.00       25.00       25.00    
  32    25.01       25.01       25.01       25.01       25.01       25.01       25.01       25.01       25.01       25.01    
        25.01       25.01       25.01       25.01       25.00       25.00       25.00       25.00       25.00       25.00    
        25.00       25.00       25.00       25.00       25.00       25.00       25.00       25.00       25.00       25.00    
        25.00       25.00       25.00       25.00       25.00       25.00       25.00       25.00       25.00       25.00    
  33    25.01       25.01       25.01       25.01       25.01       25.01       25.01       25.01       25.01       25.01    
        25.01       25.00       25.00       25.00       25.00       25.00       25.00       25.00       25.00       25.00    
        25.00       25.00       25.00       25.00       25.00       25.00       25.00       25.00       25.00       25.00    
        25.00       25.00       25.00       25.00       25.00       25.00       25.00       25.00       25.00       25.00    
  34    25.01       25.01       25.01       25.01       25.01       25.01       25.01       25.00       25.00       25.00    
        25.00       25.00       25.00       25.00       25.00       25.00       25.00       25.00       25.00       25.00    
        25.00       25.00       25.00       25.00       25.00       25.00       25.00       25.00       25.00       25.00    
        25.00       25.00       25.00       25.00       25.00       25.00       25.00       25.00       25.00       25.00    
  35    25.00       25.00       25.00       25.00       25.00       25.00       25.00       25.00       25.00       25.00    
        25.00       25.00       25.00       25.00       25.00       25.00       25.00       25.00       25.00       25.00    
        25.00       25.00       25.00       25.00       25.00       25.00       25.00       25.00       25.00       25.00    
        25.00       25.00       25.00       25.00       25.00       25.00       25.00       25.00       25.00       25.00    
  36    25.00       25.00       25.00       25.00       25.00       25.00       25.00       25.00       25.00       25.00    
        25.00       25.00       25.00       25.00       25.00       25.00       25.00       25.00       25.00       25.00    
        25.00       25.00       25.00       25.00       25.00       25.00       25.00       25.00       25.00       25.00    
        25.00       25.00       25.00       25.00       25.00       25.00       25.00       25.00       25.00       25.00    
  37    25.00       25.00       25.00       25.00       25.00       25.00       25.00       25.00       25.00       25.00    
        25.00       25.00       25.00       25.00       25.00       25.00       25.00       25.00       25.00       25.00    
        25.00       25.00       25.00       25.00       25.00       25.00       25.00       25.00       25.00       25.00    
        25.00       25.00       25.00       25.00       25.00       25.00       25.00       25.00       25.00       25.00    
  38    25.00       25.00       25.00       25.00       25.00       25.00       25.00       25.00       25.00       25.00    
        25.00       25.00       25.00       25.00       25.00       25.00       25.00       25.00       25.00       25.00    
        25.00       25.00       25.00       25.00       25.00       25.00       25.00       25.00       25.00       25.00    
        25.00       25.00       25.00       25.00       25.00       25.00       25.00       25.00       25.00       25.00    
  39    25.00       25.00       25.00       25.00       25.00       25.00       25.00       25.00       25.00       25.00    
        25.00       25.00       25.00       25.00       25.00       25.00       25.00       25.00       25.00       25.00    
        25.00       25.00       25.00       25.00       25.00       25.00       25.00       25.00       25.00       25.00    
        25.00       25.00       25.00       25.00       25.00       25.00       25.00       25.00       25.00       25.00    
  40    25.00       25.00       25.00       25.00       25.00       25.00       25.00       25.00       25.00       25.00    
        25.00       25.00       25.00       25.00       25.00       25.00       25.00       25.00       25.00       25.00    
        25.00       25.00       25.00       25.00       25.00       25.00       25.00       25.00       25.00       25.00    
        25.00       25.00       25.00       25.00       25.00       25.00       25.00       25.00       25.00       25.00    

 HEAD WILL BE SAVED ON UNIT   51 AT END OF TIME STEP    2, STRESS PERIOD    3



         TIME SUMMARY AT END OF TIME STEP    2 IN STRESS PERIOD    3
                    SECONDS     MINUTES      HOURS       DAYS        YEARS
                    -----------------------------------------------------------
   TIME STEP LENGTH 9.76828E+06 1.62805E+05  2713.4      113.06     0.30954    
 STRESS PERIOD TIME 1.95366E+07 3.25609E+05  5426.8      226.12     0.61908    
         TOTAL TIME 8.07078E+07 1.34513E+06  22419.      934.12      2.5575    
1
 
 SOLVING FOR HEAD 
                                                   Max.-Head-Change                        Max.-Flux-Residual
  Residual-Control   Outer-Iter.   Inner-Iter.     Column Row Layer    Max.-Head-Change    Column Row Layer    Max.-Flux-Residual            L2-New               L2-Old           Solver-Max-Delh
          0                 1           3             3    3     6       0.7171692144E+00       2    4    7       0.2001245097E+02      0.1834556028E+03      0.3416385637E-02      0.7171692144E+00
          0                 2           2             1    1     4      -0.1255820816E+00       2    2    6       0.2392599806E+02      0.5661564198E+02      0.1834556028E+03     -0.1255820816E+00
          0                 3           2             5    3     8       0.8785818570E-02       5    3    8       0.2261606871E+01      0.5300733663E+01      0.5661564198E+02      0.8785818570E-02
          0                 4           1             3    5     8      -0.3469522644E-03       5    3    8      -0.9279662169E-01      0.2229223364E+00      0.5300733663E+01     -0.3469522644E-03
          0                 5           1             1    1     4       0.4116682638E-05       2    2    6      -0.2376779099E-02      0.4154101948E-02      0.2229223364E+00      0.4116682638E-05

    ------------------------------------------------
       NWT REQUIRED            5 OUTER ITERATIONS 
       AND A TOTAL OF          9 INNER ITERATIONS.
    ------------------------------------------------

 NO OUTPUT CONTROL FOR STRESS PERIOD    3   TIME STEP    3
 
 SOLVING FOR HEAD 
                                                   Max.-Head-Change                        Max.-Flux-Residual
  Residual-Control   Outer-Iter.   Inner-Iter.     Column Row Layer    Max.-Head-Change    Column Row Layer    Max.-Flux-Residual            L2-New               L2-Old           Solver-Max-Delh
          0                 1           3             5    3     7       0.6267416036E+00       3    4    7       0.1759974802E+02      0.1744394968E+03      0.4154101948E-02      0.6267416036E+00
          0                 2           2             5    3     7      -0.8971246271E-01       5    3    7      -0.2488055108E+02      0.6246335570E+02      0.1744394968E+03     -0.8971246271E-01
          0                 3           2             5    3     7       0.5925013680E-02       3    5    7       0.1693842849E+01      0.4313682271E+01      0.6246335570E+02      0.5925013680E-02
          0                 4           1             5    3     7      -0.2332745492E-03       5    3    7      -0.6947808886E-01      0.1766806830E+00      0.4313682271E+01     -0.2332745492E-03
          0                 5           1             1   11    14       0.2390159115E-05       5    3    7       0.8801869408E-03      0.2263772284E-02      0.1766806830E+00      0.2390159115E-05

    ------------------------------------------------
       NWT REQUIRED            5 OUTER ITERATIONS 
       AND A TOTAL OF          9 INNER ITERATIONS.
    ------------------------------------------------

 NO OUTPUT CONTROL FOR STRESS PERIOD    3   TIME STEP    4
 
 SOLVING FOR HEAD 
                                                   Max.-Head-Change                        Max.-Flux-Residual
  Residual-Control   Outer-Iter.   Inner-Iter.     Column Row Layer    Max.-Head-Change    Column Row Layer    Max.-Flux-Residual            L2-New               L2-Old           Solver-Max-Delh
          0                 1           3             5    4     7       0.5614304830E+00       4    5    8       0.1551744731E+02      0.1660549804E+03      0.2263772284E-02      0.5614304830E+00
          0                 2           3             6    1     7      -0.7505516900E-01       6    1    7      -0.1657505906E+02      0.5467316986E+02      0.1660549804E+03     -0.7505516900E-01
          0                 3           2             5    4     8       0.5497545819E-02       5    9    9       0.1497733619E+01      0.4800642905E+01      0.5467316986E+02      0.5497545819E-02
          0                 4           1             4    5     8      -0.2162730892E-03       5    9    9      -0.6129710300E-01      0.1965900717E+00      0.4800642905E+01     -0.2162730892E-03
          0                 5           1             2   10     9       0.2498752703E-05       5    9    9       0.7767613351E-03      0.2533976323E-02      0.1965900717E+00      0.2498752703E-05

    ------------------------------------------------
       NWT REQUIRED            5 OUTER ITERATIONS 
       AND A TOTAL OF         10 INNER ITERATIONS.
    ------------------------------------------------

 NO OUTPUT CONTROL FOR STRESS PERIOD    3   TIME STEP    5
 
 SOLVING FOR HEAD 
                                                   Max.-Head-Change                        Max.-Flux-Residual
  Residual-Control   Outer-Iter.   Inner-Iter.     Column Row Layer    Max.-Head-Change    Column Row Layer    Max.-Flux-Residual            L2-New               L2-Old           Solver-Max-Delh
          0                 1           3             7    1     7       0.5018376763E+00       5    4    8       0.1392356943E+02      0.1572846362E+03      0.2533976323E-02      0.5018376763E+00
          0                 2           3             1    4     6      -0.6367887348E-01       5    4    8       0.1577846936E+02      0.5870203667E+02      0.1572846362E+03     -0.6367887348E-01
          0                 3           2             1    4     6       0.4237975775E-02       5    4    8      -0.1495508213E+01      0.4330604114E+01      0.5870203667E+02      0.4237975775E-02
          0                 4           1             1    4     6      -0.1657971068E-03       4    5    8       0.9912842509E-01      0.2126977387E+00      0.4330604114E+01     -0.1657971068E-03
          0                 5           1             4    5     8      -0.7116083764E-05       4    5    8      -0.3842249269E-02      0.6300527219E-02      0.2126977387E+00     -0.7116083764E-05

    ------------------------------------------------
       NWT REQUIRED            5 OUTER ITERATIONS 
       AND A TOTAL OF         10 INNER ITERATIONS.
    ------------------------------------------------

 NO OUTPUT CONTROL FOR STRESS PERIOD    3   TIME STEP    6
 
 SOLVING FOR HEAD 
                                                   Max.-Head-Change                        Max.-Flux-Residual
  Residual-Control   Outer-Iter.   Inner-Iter.     Column Row Layer    Max.-Head-Change    Column Row Layer    Max.-Flux-Residual            L2-New               L2-Old           Solver-Max-Delh
          0                 1           3             5    5     7       0.4690103632E+00       3    6    8       0.1271456847E+02      0.1507083439E+03      0.6300527219E-02      0.4690103632E+00
          0                 2           2             1    2     4      -0.1137349142E+00       1    2    4      -0.2068487440E+02      0.5438769231E+02      0.1507083439E+03     -0.1137349142E+00
          0                 3           2             1    2     4       0.7327361348E-02       2    1    4       0.1350132704E+01      0.3947202820E+01      0.5438769231E+02      0.7327361348E-02
          0                 4           1             1    2     4      -0.2907674694E-03      11    1    8       0.6866207350E-01      0.1806167332E+00      0.3947202820E+01     -0.2907674694E-03
          0                 5           1            11    1     8      -0.9977573279E-05      11    1    8      -0.2785996352E-02      0.4529385250E-02      0.1806167332E+00     -0.9977573279E-05

    ------------------------------------------------
       NWT REQUIRED            5 OUTER ITERATIONS 
       AND A TOTAL OF          9 INNER ITERATIONS.
    ------------------------------------------------

 NO OUTPUT CONTROL FOR STRESS PERIOD    3   TIME STEP    7
 
 SOLVING FOR HEAD 
                                                   Max.-Head-Change                        Max.-Flux-Residual
  Residual-Control   Outer-Iter.   Inner-Iter.     Column Row Layer    Max.-Head-Change    Column Row Layer    Max.-Flux-Residual            L2-New               L2-Old           Solver-Max-Delh
          0                 1           3             5    5     7       0.4283375830E+00       5    5    8       0.1159727893E+02      0.1448651059E+03      0.4529385250E-02      0.4283375830E+00
          0                 2           2             2    4     6      -0.6405547130E-01       2    4    6      -0.1571377546E+02      0.5020591011E+02      0.1448651059E+03     -0.6405547130E-01
          0                 3           2             7    1     8       0.5905635121E-02       7    1    8       0.1471161103E+01      0.4187120526E+01      0.5020591011E+02      0.5905635121E-02
          0                 4           1             1    7     8      -0.2325555761E-03       7    1    8      -0.6031065627E-01      0.1714794446E+00      0.4187120526E+01     -0.2325555761E-03
          0                 5           1             1   11     8       0.2257146587E-05       7    1    8       0.7623119673E-03      0.2240192554E-02      0.1714794446E+00      0.2257146587E-05

    ------------------------------------------------
       NWT REQUIRED            5 OUTER ITERATIONS 
       AND A TOTAL OF          9 INNER ITERATIONS.
    ------------------------------------------------

 NO OUTPUT CONTROL FOR STRESS PERIOD    3   TIME STEP    8
 
 SOLVING FOR HEAD 
                                                   Max.-Head-Change                        Max.-Flux-Residual
  Residual-Control   Outer-Iter.   Inner-Iter.     Column Row Layer    Max.-Head-Change    Column Row Layer    Max.-Flux-Residual            L2-New               L2-Old           Solver-Max-Delh
          0                 1           3             6    4     7       0.3967920644E+00       6    4    8       0.1064534297E+02      0.1384837209E+03      0.2240192554E-02      0.3967920644E+00
          0                 2           3             7    1     7      -0.5554651257E-01       7    1    7      -0.1366900608E+02      0.4358887383E+02      0.1384837209E+03     -0.5554651257E-01
          0                 3           2             7    1     7       0.3711331413E-02       7    1    7       0.9449194413E+00      0.3029113567E+01      0.4358887383E+02      0.3711331413E-02
          0                 4           1             1    7     7      -0.1450761588E-03       7    1    7      -0.3869919986E-01      0.1239907534E+00      0.3029113567E+01     -0.1450761588E-03
          0                 5           1             1   15    14       0.1943136178E-05       7    1    7       0.4903573499E-03      0.1662229826E-02      0.1239907534E+00      0.1943136178E-05

    ------------------------------------------------
       NWT REQUIRED            5 OUTER ITERATIONS 
       AND A TOTAL OF         10 INNER ITERATIONS.
    ------------------------------------------------

 NO OUTPUT CONTROL FOR STRESS PERIOD    3   TIME STEP    9
 
 SOLVING FOR HEAD 
                                                   Max.-Head-Change                        Max.-Flux-Residual
  Residual-Control   Outer-Iter.   Inner-Iter.     Column Row Layer    Max.-Head-Change    Column Row Layer    Max.-Flux-Residual            L2-New               L2-Old           Solver-Max-Delh
          0                 1           3             6    5     7       0.3703401677E+00       6    5    8       0.9881071691E+01      0.1341705732E+03      0.1662229826E-02      0.3703401677E+00
          0                 2           3             8    9     8      -0.4072627152E-01       8    9    8      -0.8013052245E+01      0.2524984996E+02      0.1341705732E+03     -0.4072627152E-01
          0                 3           2             7    3     8       0.4465390539E-02       7    3    8       0.1224000443E+01      0.2611567056E+01      0.2524984996E+02      0.4465390539E-02
          0                 4           1             3    7     8      -0.1748874358E-03       3    7    8      -0.5013678225E-01      0.1069125247E+00      0.2611567056E+01     -0.1748874358E-03
          0                 5           1             1   15    14       0.1879621624E-05       7    3    8       0.6266447817E-03      0.1462564835E-02      0.1069125247E+00      0.1879621624E-05

    ------------------------------------------------
       NWT REQUIRED            5 OUTER ITERATIONS 
       AND A TOTAL OF         10 INNER ITERATIONS.
    ------------------------------------------------

 NO OUTPUT CONTROL FOR STRESS PERIOD    3   TIME STEP   10
 
 SOLVING FOR HEAD 
                                                   Max.-Head-Change                        Max.-Flux-Residual
  Residual-Control   Outer-Iter.   Inner-Iter.     Column Row Layer    Max.-Head-Change    Column Row Layer    Max.-Flux-Residual            L2-New               L2-Old           Solver-Max-Delh
          0                 1           3             6    5     7       0.3470042342E+00       7    3    8       0.9238183706E+01      0.1300127007E+03      0.1462564835E-02      0.3470042342E+00
          0                 2           3             1    3     5      -0.8245277405E-01       1    3    5      -0.1815274840E+02      0.4326113836E+02      0.1300127007E+03     -0.8245277405E-01
          0                 3           2             3    1     4       0.6075882103E-02       1    3    5       0.1227887931E+01      0.3459991113E+01      0.4326113836E+02      0.6075882103E-02
          0                 4           1             3    1     4      -0.2398566125E-03       4   12    8       0.5190023725E-01      0.1547251982E+00      0.3459991113E+01     -0.2398566125E-03
          0                 5           1            12    4     8      -0.5128618584E-05      12    4    8      -0.2103287126E-02      0.3711207020E-02      0.1547251982E+00     -0.5128618584E-05

    ------------------------------------------------
       NWT REQUIRED            5 OUTER ITERATIONS 
       AND A TOTAL OF         10 INNER ITERATIONS.
    ------------------------------------------------

 NO OUTPUT CONTROL FOR STRESS PERIOD    3   TIME STEP   11
 
 SOLVING FOR HEAD 
                                                   Max.-Head-Change                        Max.-Flux-Residual
  Residual-Control   Outer-Iter.   Inner-Iter.     Column Row Layer    Max.-Head-Change    Column Row Layer    Max.-Flux-Residual            L2-New               L2-Old           Solver-Max-Delh
          0                 1           3             6    6     7       0.3254786824E+00       4    7    8       0.8619434059E+01      0.1260045667E+03      0.3711207020E-02      0.3254786824E+00
          0                 2           3             2    2     4      -0.4190763876E-01       3    4    7       0.1021651406E+02      0.3230070200E+02      0.1260045667E+03     -0.4190763876E-01
          0                 3           2             7    4     8       0.3650490224E-02       3    4    7      -0.9707923629E+00      0.3247660273E+01      0.3230070200E+02      0.3650490224E-02
          0                 4           1             4    7     8      -0.1417676622E-03       4    3    7       0.6396693419E-01      0.1533779818E+00      0.3247660273E+01     -0.1417676622E-03
          0                 5           1             4    3     7      -0.5502615769E-05       3    4    7      -0.2460874952E-02      0.4246532464E-02      0.1533779818E+00     -0.5502615769E-05

    ------------------------------------------------
       NWT REQUIRED            5 OUTER ITERATIONS 
       AND A TOTAL OF         10 INNER ITERATIONS.
    ------------------------------------------------

 NO OUTPUT CONTROL FOR STRESS PERIOD    3   TIME STEP   12
 
 SOLVING FOR HEAD 
                                                   Max.-Head-Change                        Max.-Flux-Residual
  Residual-Control   Outer-Iter.   Inner-Iter.     Column Row Layer    Max.-Head-Change    Column Row Layer    Max.-Flux-Residual            L2-New               L2-Old           Solver-Max-Delh
          0                 1           3             6    6     7       0.3101139512E+00       6    6    8       0.8192677910E+01      0.1232293257E+03      0.4246532464E-02      0.3101139512E+00
          0                 2           3             7    4     7      -0.4375109132E-01       7    4    7      -0.1130545293E+02      0.3857158974E+02      0.1232293257E+03     -0.4375109132E-01
          0                 3           2             7    4     7       0.2924435582E-02       7    4    7       0.7806991858E+00      0.2683598614E+01      0.3857158974E+02      0.2924435582E-02
          0                 4           1             4    7     7      -0.1133680256E-03       7    4    7      -0.3197736273E-01      0.1098354813E+00      0.2683598614E+01     -0.1133680256E-03
          0                 5           1             3    3    14      -0.1988117539E-05       7    4    7       0.4064071873E-03      0.1527095760E-02      0.1098354813E+00     -0.1988117539E-05

    ------------------------------------------------
       NWT REQUIRED            5 OUTER ITERATIONS 
       AND A TOTAL OF         10 INNER ITERATIONS.
    ------------------------------------------------

 NO OUTPUT CONTROL FOR STRESS PERIOD    3   TIME STEP   13
 
 SOLVING FOR HEAD 
                                                   Max.-Head-Change                        Max.-Flux-Residual
  Residual-Control   Outer-Iter.   Inner-Iter.     Column Row Layer    Max.-Head-Change    Column Row Layer    Max.-Flux-Residual            L2-New               L2-Old           Solver-Max-Delh
          0                 1           3             6    6     7       0.2939821329E+00       6    6    8       0.7729314510E+01      0.1191827076E+03      0.1527095760E-02      0.2939821329E+00
          0                 2           3             8    2     7      -0.3872969936E-01       8    2    7      -0.8522158795E+01      0.3051423181E+02      0.1191827076E+03     -0.3872969936E-01
          0                 3           2             6    6     7       0.3397363439E-02       8    2    7       0.5891741259E+00      0.2157663108E+01      0.3051423181E+02      0.3397363439E-02
          0                 4           1             6    6     7      -0.5714306193E-03       6    6    7      -0.1181811290E+00      0.1489528358E+00      0.2157663108E+01     -0.5714306193E-03
          0                 5           1             6    6     7       0.5829834156E-05       6    6    7       0.1494431814E-02      0.2022812546E-02      0.1489528358E+00      0.5829834156E-05

    ------------------------------------------------
       NWT REQUIRED            5 OUTER ITERATIONS 
       AND A TOTAL OF         10 INNER ITERATIONS.
    ------------------------------------------------

 NO OUTPUT CONTROL FOR STRESS PERIOD    3   TIME STEP   14
 
 SOLVING FOR HEAD 
                                                   Max.-Head-Change                        Max.-Flux-Residual
  Residual-Control   Outer-Iter.   Inner-Iter.     Column Row Layer    Max.-Head-Change    Column Row Layer    Max.-Flux-Residual            L2-New               L2-Old           Solver-Max-Delh
          0                 1           3             8    3     7       0.2773373694E+00       7    5    8       0.7337591175E+01      0.1162907408E+03      0.2022812546E-02      0.2773373694E+00
          0                 2           2             2    3     4      -0.5094888758E-01       6    6    8       0.8048945861E+01      0.2651684023E+02      0.1162907408E+03     -0.5094888758E-01
          0                 3           2             2    3     4       0.3387164343E-02       6    6    8      -0.6630713598E+00      0.1870821322E+01      0.2651684023E+02      0.3387164343E-02
          0                 4           1             2    3     4      -0.1333749047E-03       6    6    8       0.3694527032E-01      0.8130142930E-01      0.1870821322E+01     -0.1333749047E-03
          0                 5           1             6    6     8      -0.2915637686E-05       6    6    8      -0.1198827562E-02      0.1782563835E-02      0.8130142930E-01     -0.2915637686E-05

    ------------------------------------------------
       NWT REQUIRED            5 OUTER ITERATIONS 
       AND A TOTAL OF          9 INNER ITERATIONS.
    ------------------------------------------------

 NO OUTPUT CONTROL FOR STRESS PERIOD    3   TIME STEP   15
 
 SOLVING FOR HEAD 
                                                   Max.-Head-Change                        Max.-Flux-Residual
  Residual-Control   Outer-Iter.   Inner-Iter.     Column Row Layer    Max.-Head-Change    Column Row Layer    Max.-Flux-Residual            L2-New               L2-Old           Solver-Max-Delh
          0                 1           3             7    6     7       0.2646098639E+00       6    7    8       0.6940623546E+01      0.1130740645E+03      0.1782563835E-02      0.2646098639E+00
          0                 2           3            10   10     8      -0.2838174599E-01       2    3    6       0.6731134897E+01      0.2007417081E+02      0.1130740645E+03     -0.2838174599E-01
          0                 3           2             6   13     9       0.1920740163E-02       2    3    6      -0.6360216478E+00      0.1598595504E+01      0.2007417081E+02      0.1920740163E-02
          0                 4           1             6   13     9      -0.7445084770E-04       2    3    6       0.4202223262E-01      0.8322547488E-01      0.1598595504E+01     -0.7445084770E-04

    ------------------------------------------------
       NWT REQUIRED            4 OUTER ITERATIONS 
       AND A TOTAL OF          9 INNER ITERATIONS.
    ------------------------------------------------

 NO OUTPUT CONTROL FOR STRESS PERIOD    3   TIME STEP   16
 
 SOLVING FOR HEAD 
                                                   Max.-Head-Change                        Max.-Flux-Residual
  Residual-Control   Outer-Iter.   Inner-Iter.     Column Row Layer    Max.-Head-Change    Column Row Layer    Max.-Flux-Residual            L2-New               L2-Old           Solver-Max-Delh
          0                 1           3             7    6     7       0.2533334674E+00       7    6    8       0.6631800064E+01      0.1108013813E+03      0.8322547488E-01      0.2533334674E+00
          0                 2           3             4    4     6      -0.3353018236E-01      13    6    8      -0.7179099711E+01      0.2659549246E+02      0.1108013813E+03     -0.3353018236E-01
          0                 3           2             4    4     6       0.2250153640E-02      13    6    8       0.4980611166E+00      0.1853365973E+01      0.2659549246E+02      0.2250153640E-02
          0                 4           1             4    4     6      -0.8614711445E-04      13    6    8      -0.2039057967E-01      0.7584177003E-01      0.1853365973E+01     -0.8614711445E-04

    ------------------------------------------------
       NWT REQUIRED            4 OUTER ITERATIONS 
       AND A TOTAL OF          9 INNER ITERATIONS.
    ------------------------------------------------

 OUTPUT CONTROL FOR STRESS PERIOD    3   TIME STEP   17
    SAVE BUDGET
    PRINT HEAD FOR ALL LAYERS
    PRINT BUDGET
    SAVE HEAD FOR ALL LAYERS
 UBDSV1 SAVING "         STORAGE" ON UNIT  32 AT TIME STEP 17, STRESS PERIOD 3
 UBDSV2 SAVING "   CONSTANT HEAD" ON UNIT  32 AT TIME STEP 17, STRESS PERIOD 3
 UBDSV1 SAVING "FLOW RIGHT FACE " ON UNIT  32 AT TIME STEP 17, STRESS PERIOD 3
 UBDSV1 SAVING "FLOW FRONT FACE " ON UNIT  32 AT TIME STEP 17, STRESS PERIOD 3
 UBDSV1 SAVING "FLOW LOWER FACE " ON UNIT  32 AT TIME STEP 17, STRESS PERIOD 3
 UBDSV3 SAVING "        RECHARGE" ON UNIT  32 AT TIME STEP 17, STRESS PERIOD 3
1
              HEAD IN LAYER 1 AT END OF TIME STEP 17 IN STRESS PERIOD 3
  ---------------------------------------------------------------------------

            1           2           3           4           5           6           7           8           9          10
           11          12          13          14          15          16          17          18          19          20
           21          22          23          24          25          26          27          28          29          30
           31          32          33          34          35          36          37          38          39          40
 ........................................................................................................................
   1   -99.90      -99.90      -99.90      -99.90      -99.90      -99.90      -99.90      -99.90      -99.90      -99.90    
       -99.90      -99.90      -99.90      -99.90      -99.90      -99.90      -99.90      -99.90      -99.90      -99.90    
       -99.90      -99.90      -99.90      -99.90      -99.90      -99.90      -99.90      -99.90      -99.90      -99.90    
       -99.90      -99.90      -99.90      -99.90      -99.90      -99.90      -99.90      -99.90      -99.90      -99.90    
   2   -99.90      -99.90      -99.90      -99.90      -99.90      -99.90      -99.90      -99.90      -99.90      -99.90    
       -99.90      -99.90      -99.90      -99.90      -99.90      -99.90      -99.90      -99.90      -99.90      -99.90    
       -99.90      -99.90      -99.90      -99.90      -99.90      -99.90      -99.90      -99.90      -99.90      -99.90    
       -99.90      -99.90      -99.90      -99.90      -99.90      -99.90      -99.90      -99.90      -99.90      -99.90    
   3   -99.90      -99.90      -99.90      -99.90      -99.90      -99.90      -99.90      -99.90      -99.90      -99.90    
       -99.90      -99.90      -99.90      -99.90      -99.90      -99.90      -99.90      -99.90      -99.90      -99.90    
       -99.90      -99.90      -99.90      -99.90      -99.90      -99.90      -99.90      -99.90      -99.90      -99.90    
       -99.90      -99.90      -99.90      -99.90      -99.90      -99.90      -99.90      -99.90      -99.90      -99.90    
   4   -99.90      -99.90      -99.90      -99.90      -99.90      -99.90      -99.90      -99.90      -99.90      -99.90    
       -99.90      -99.90      -99.90      -99.90      -99.90      -99.90      -99.90      -99.90      -99.90      -99.90    
       -99.90      -99.90      -99.90      -99.90      -99.90      -99.90      -99.90      -99.90      -99.90      -99.90    
       -99.90      -99.90      -99.90      -99.90      -99.90      -99.90      -99.90      -99.90      -99.90      -99.90    
   5   -99.90      -99.90      -99.90      -99.90      -99.90      -99.90      -99.90      -99.90      -99.90      -99.90    
       -99.90      -99.90      -99.90      -99.90      -99.90      -99.90      -99.90      -99.90      -99.90      -99.90    
       -99.90      -99.90      -99.90      -99.90      -99.90      -99.90      -99.90      -99.90      -99.90      -99.90    
       -99.90      -99.90      -99.90      -99.90      -99.90      -99.90      -99.90      -99.90      -99.90      -99.90    
   6   -99.90      -99.90      -99.90      -99.90      -99.90      -99.90      -99.90      -99.90      -99.90      -99.90    
       -99.90      -99.90      -99.90      -99.90      -99.90      -99.90      -99.90      -99.90      -99.90      -99.90    
       -99.90      -99.90      -99.90      -99.90      -99.90      -99.90      -99.90      -99.90      -99.90      -99.90    
       -99.90      -99.90      -99.90      -99.90      -99.90      -99.90      -99.90      -99.90      -99.90      -99.90    
   7   -99.90      -99.90      -99.90      -99.90      -99.90      -99.90      -99.90      -99.90      -99.90      -99.90    
       -99.90      -99.90      -99.90      -99.90      -99.90      -99.90      -99.90      -99.90      -99.90      -99.90    
       -99.90      -99.90      -99.90      -99.90      -99.90      -99.90      -99.90      -99.90      -99.90      -99.90    
       -99.90      -99.90      -99.90      -99.90      -99.90      -99.90      -99.90      -99.90      -99.90      -99.90    
   8   -99.90      -99.90      -99.90      -99.90      -99.90      -99.90      -99.90      -99.90      -99.90      -99.90    
       -99.90      -99.90      -99.90      -99.90      -99.90      -99.90      -99.90      -99.90      -99.90      -99.90    
       -99.90      -99.90      -99.90      -99.90      -99.90      -99.90      -99.90      -99.90      -99.90      -99.90    
       -99.90      -99.90      -99.90      -99.90      -99.90      -99.90      -99.90      -99.90      -99.90      -99.90    
   9   -99.90      -99.90      -99.90      -99.90      -99.90      -99.90      -99.90      -99.90      -99.90      -99.90    
       -99.90      -99.90      -99.90      -99.90      -99.90      -99.90      -99.90      -99.90      -99.90      -99.90    
       -99.90      -99.90      -99.90      -99.90      -99.90      -99.90      -99.90      -99.90      -99.90      -99.90    
       -99.90      -99.90      -99.90      -99.90      -99.90      -99.90      -99.90      -99.90      -99.90      -99.90    
  10   -99.90      -99.90      -99.90      -99.90      -99.90      -99.90      -99.90      -99.90      -99.90      -99.90    
       -99.90      -99.90      -99.90      -99.90      -99.90      -99.90      -99.90      -99.90      -99.90      -99.90    
       -99.90      -99.90      -99.90      -99.90      -99.90      -99.90      -99.90      -99.90      -99.90      -99.90    
       -99.90      -99.90      -99.90      -99.90      -99.90      -99.90      -99.90      -99.90      -99.90      -99.90    
  11   -99.90      -99.90      -99.90      -99.90      -99.90      -99.90      -99.90      -99.90      -99.90      -99.90    
       -99.90      -99.90      -99.90      -99.90      -99.90      -99.90      -99.90      -99.90      -99.90      -99.90    
       -99.90      -99.90      -99.90      -99.90      -99.90      -99.90      -99.90      -99.90      -99.90      -99.90    
       -99.90      -99.90      -99.90      -99.90      -99.90      -99.90      -99.90      -99.90      -99.90      -99.90    
  12   -99.90      -99.90      -99.90      -99.90      -99.90      -99.90      -99.90      -99.90      -99.90      -99.90    
       -99.90      -99.90      -99.90      -99.90      -99.90      -99.90      -99.90      -99.90      -99.90      -99.90    
       -99.90      -99.90      -99.90      -99.90      -99.90      -99.90      -99.90      -99.90      -99.90      -99.90    
       -99.90      -99.90      -99.90      -99.90      -99.90      -99.90      -99.90      -99.90      -99.90      -99.90    
  13   -99.90      -99.90      -99.90      -99.90      -99.90      -99.90      -99.90      -99.90      -99.90      -99.90    
       -99.90      -99.90      -99.90      -99.90      -99.90      -99.90      -99.90      -99.90      -99.90      -99.90    
       -99.90      -99.90      -99.90      -99.90      -99.90      -99.90      -99.90      -99.90      -99.90      -99.90    
       -99.90      -99.90      -99.90      -99.90      -99.90      -99.90      -99.90      -99.90      -99.90      -99.90    
  14   -99.90      -99.90      -99.90      -99.90      -99.90      -99.90      -99.90      -99.90      -99.90      -99.90    
       -99.90      -99.90      -99.90      -99.90      -99.90      -99.90      -99.90      -99.90      -99.90      -99.90    
       -99.90      -99.90      -99.90      -99.90      -99.90      -99.90      -99.90      -99.90      -99.90      -99.90    
       -99.90      -99.90      -99.90      -99.90      -99.90      -99.90      -99.90      -99.90      -99.90      -99.90    
  15   -99.90      -99.90      -99.90      -99.90      -99.90      -99.90      -99.90      -99.90      -99.90      -99.90    
       -99.90      -99.90      -99.90      -99.90      -99.90      -99.90      -99.90      -99.90      -99.90      -99.90    
       -99.90      -99.90      -99.90      -99.90      -99.90      -99.90      -99.90      -99.90      -99.90      -99.90    
       -99.90      -99.90      -99.90      -99.90      -99.90      -99.90      -99.90      -99.90      -99.90      -99.90    
  16   -99.90      -99.90      -99.90      -99.90      -99.90      -99.90      -99.90      -99.90      -99.90      -99.90    
       -99.90      -99.90      -99.90      -99.90      -99.90      -99.90      -99.90      -99.90      -99.90      -99.90    
       -99.90      -99.90      -99.90      -99.90      -99.90      -99.90      -99.90      -99.90      -99.90      -99.90    
       -99.90      -99.90      -99.90      -99.90      -99.90      -99.90      -99.90      -99.90      -99.90      -99.90    
  17   -99.90      -99.90      -99.90      -99.90      -99.90      -99.90      -99.90      -99.90      -99.90      -99.90    
       -99.90      -99.90      -99.90      -99.90      -99.90      -99.90      -99.90      -99.90      -99.90      -99.90    
       -99.90      -99.90      -99.90      -99.90      -99.90      -99.90      -99.90      -99.90      -99.90      -99.90    
       -99.90      -99.90      -99.90      -99.90      -99.90      -99.90      -99.90      -99.90      -99.90      -99.90    
  18   -99.90      -99.90      -99.90      -99.90      -99.90      -99.90      -99.90      -99.90      -99.90      -99.90    
       -99.90      -99.90      -99.90      -99.90      -99.90      -99.90      -99.90      -99.90      -99.90      -99.90    
       -99.90      -99.90      -99.90      -99.90      -99.90      -99.90      -99.90      -99.90      -99.90      -99.90    
       -99.90      -99.90      -99.90      -99.90      -99.90      -99.90      -99.90      -99.90      -99.90      -99.90    
  19   -99.90      -99.90      -99.90      -99.90      -99.90      -99.90      -99.90      -99.90      -99.90      -99.90    
       -99.90      -99.90      -99.90      -99.90      -99.90      -99.90      -99.90      -99.90      -99.90      -99.90    
       -99.90      -99.90      -99.90      -99.90      -99.90      -99.90      -99.90      -99.90      -99.90      -99.90    
       -99.90      -99.90      -99.90      -99.90      -99.90      -99.90      -99.90      -99.90      -99.90      -99.90    
  20   -99.90      -99.90      -99.90      -99.90      -99.90      -99.90      -99.90      -99.90      -99.90      -99.90    
       -99.90      -99.90      -99.90      -99.90      -99.90      -99.90      -99.90      -99.90      -99.90      -99.90    
       -99.90      -99.90      -99.90      -99.90      -99.90      -99.90      -99.90      -99.90      -99.90      -99.90    
       -99.90      -99.90      -99.90      -99.90      -99.90      -99.90      -99.90      -99.90      -99.90      -99.90    
  21   -99.90      -99.90      -99.90      -99.90      -99.90      -99.90      -99.90      -99.90      -99.90      -99.90    
       -99.90      -99.90      -99.90      -99.90      -99.90      -99.90      -99.90      -99.90      -99.90      -99.90    
       -99.90      -99.90      -99.90      -99.90      -99.90      -99.90      -99.90      -99.90      -99.90      -99.90    
       -99.90      -99.90      -99.90      -99.90      -99.90      -99.90      -99.90      -99.90      -99.90      -99.90    
  22   -99.90      -99.90      -99.90      -99.90      -99.90      -99.90      -99.90      -99.90      -99.90      -99.90    
       -99.90      -99.90      -99.90      -99.90      -99.90      -99.90      -99.90      -99.90      -99.90      -99.90    
       -99.90      -99.90      -99.90      -99.90      -99.90      -99.90      -99.90      -99.90      -99.90      -99.90    
       -99.90      -99.90      -99.90      -99.90      -99.90      -99.90      -99.90      -99.90      -99.90      -99.90    
  23   -99.90      -99.90      -99.90      -99.90      -99.90      -99.90      -99.90      -99.90      -99.90      -99.90    
       -99.90      -99.90      -99.90      -99.90      -99.90      -99.90      -99.90      -99.90      -99.90      -99.90    
       -99.90      -99.90      -99.90      -99.90      -99.90      -99.90      -99.90      -99.90      -99.90      -99.90    
       -99.90      -99.90      -99.90      -99.90      -99.90      -99.90      -99.90      -99.90      -99.90      -99.90    
  24   -99.90      -99.90      -99.90      -99.90      -99.90      -99.90      -99.90      -99.90      -99.90      -99.90    
       -99.90      -99.90      -99.90      -99.90      -99.90      -99.90      -99.90      -99.90      -99.90      -99.90    
       -99.90      -99.90      -99.90      -99.90      -99.90      -99.90      -99.90      -99.90      -99.90      -99.90    
       -99.90      -99.90      -99.90      -99.90      -99.90      -99.90      -99.90      -99.90      -99.90      -99.90    
  25   -99.90      -99.90      -99.90      -99.90      -99.90      -99.90      -99.90      -99.90      -99.90      -99.90    
       -99.90      -99.90      -99.90      -99.90      -99.90      -99.90      -99.90      -99.90      -99.90      -99.90    
       -99.90      -99.90      -99.90      -99.90      -99.90      -99.90      -99.90      -99.90      -99.90      -99.90    
       -99.90      -99.90      -99.90      -99.90      -99.90      -99.90      -99.90      -99.90      -99.90      -99.90    
  26   -99.90      -99.90      -99.90      -99.90      -99.90      -99.90      -99.90      -99.90      -99.90      -99.90    
       -99.90      -99.90      -99.90      -99.90      -99.90      -99.90      -99.90      -99.90      -99.90      -99.90    
       -99.90      -99.90      -99.90      -99.90      -99.90      -99.90      -99.90      -99.90      -99.90      -99.90    
       -99.90      -99.90      -99.90      -99.90      -99.90      -99.90      -99.90      -99.90      -99.90      -99.90    
  27   -99.90      -99.90      -99.90      -99.90      -99.90      -99.90      -99.90      -99.90      -99.90      -99.90    
       -99.90      -99.90      -99.90      -99.90      -99.90      -99.90      -99.90      -99.90      -99.90      -99.90    
       -99.90      -99.90      -99.90      -99.90      -99.90      -99.90      -99.90      -99.90      -99.90      -99.90    
       -99.90      -99.90      -99.90      -99.90      -99.90      -99.90      -99.90      -99.90      -99.90      -99.90    
  28   -99.90      -99.90      -99.90      -99.90      -99.90      -99.90      -99.90      -99.90      -99.90      -99.90    
       -99.90      -99.90      -99.90      -99.90      -99.90      -99.90      -99.90      -99.90      -99.90      -99.90    
       -99.90      -99.90      -99.90      -99.90      -99.90      -99.90      -99.90      -99.90      -99.90      -99.90    
       -99.90      -99.90      -99.90      -99.90      -99.90      -99.90      -99.90      -99.90      -99.90      -99.90    
  29   -99.90      -99.90      -99.90      -99.90      -99.90      -99.90      -99.90      -99.90      -99.90      -99.90    
       -99.90      -99.90      -99.90      -99.90      -99.90      -99.90      -99.90      -99.90      -99.90      -99.90    
       -99.90      -99.90      -99.90      -99.90      -99.90      -99.90      -99.90      -99.90      -99.90      -99.90    
       -99.90      -99.90      -99.90      -99.90      -99.90      -99.90      -99.90      -99.90      -99.90      -99.90    
  30   -99.90      -99.90      -99.90      -99.90      -99.90      -99.90      -99.90      -99.90      -99.90      -99.90    
       -99.90      -99.90      -99.90      -99.90      -99.90      -99.90      -99.90      -99.90      -99.90      -99.90    
       -99.90      -99.90      -99.90      -99.90      -99.90      -99.90      -99.90      -99.90      -99.90      -99.90    
       -99.90      -99.90      -99.90      -99.90      -99.90      -99.90      -99.90      -99.90      -99.90      -99.90    
  31   -99.90      -99.90      -99.90      -99.90      -99.90      -99.90      -99.90      -99.90      -99.90      -99.90    
       -99.90      -99.90      -99.90      -99.90      -99.90      -99.90      -99.90      -99.90      -99.90      -99.90    
       -99.90      -99.90      -99.90      -99.90      -99.90      -99.90      -99.90      -99.90      -99.90      -99.90    
       -99.90      -99.90      -99.90      -99.90      -99.90      -99.90      -99.90      -99.90      -99.90      -99.90    
  32   -99.90      -99.90      -99.90      -99.90      -99.90      -99.90      -99.90      -99.90      -99.90      -99.90    
       -99.90      -99.90      -99.90      -99.90      -99.90      -99.90      -99.90      -99.90      -99.90      -99.90    
       -99.90      -99.90      -99.90      -99.90      -99.90      -99.90      -99.90      -99.90      -99.90      -99.90    
       -99.90      -99.90      -99.90      -99.90      -99.90      -99.90      -99.90      -99.90      -99.90      -99.90    
  33   -99.90      -99.90      -99.90      -99.90      -99.90      -99.90      -99.90      -99.90      -99.90      -99.90    
       -99.90      -99.90      -99.90      -99.90      -99.90      -99.90      -99.90      -99.90      -99.90      -99.90    
       -99.90      -99.90      -99.90      -99.90      -99.90      -99.90      -99.90      -99.90      -99.90      -99.90    
       -99.90      -99.90      -99.90      -99.90      -99.90      -99.90      -99.90      -99.90      -99.90      -99.90    
  34   -99.90      -99.90      -99.90      -99.90      -99.90      -99.90      -99.90      -99.90      -99.90      -99.90    
       -99.90      -99.90      -99.90      -99.90      -99.90      -99.90      -99.90      -99.90      -99.90      -99.90    
       -99.90      -99.90      -99.90      -99.90      -99.90      -99.90      -99.90      -99.90      -99.90      -99.90    
       -99.90      -99.90      -99.90      -99.90      -99.90      -99.90      -99.90      -99.90      -99.90      -99.90    
  35   -99.90      -99.90      -99.90      -99.90      -99.90      -99.90      -99.90      -99.90      -99.90      -99.90    
       -99.90      -99.90      -99.90      -99.90      -99.90      -99.90      -99.90      -99.90      -99.90      -99.90    
       -99.90      -99.90      -99.90      -99.90      -99.90      -99.90      -99.90      -99.90      -99.90      -99.90    
       -99.90      -99.90      -99.90      -99.90      -99.90      -99.90      -99.90      -99.90      -99.90      -99.90    
  36   -99.90      -99.90      -99.90      -99.90      -99.90      -99.90      -99.90      -99.90      -99.90      -99.90    
       -99.90      -99.90      -99.90      -99.90      -99.90      -99.90      -99.90      -99.90      -99.90      -99.90    
       -99.90      -99.90      -99.90      -99.90      -99.90      -99.90      -99.90      -99.90      -99.90      -99.90    
       -99.90      -99.90      -99.90      -99.90      -99.90      -99.90      -99.90      -99.90      -99.90      -99.90    
  37   -99.90      -99.90      -99.90      -99.90      -99.90      -99.90      -99.90      -99.90      -99.90      -99.90    
       -99.90      -99.90      -99.90      -99.90      -99.90      -99.90      -99.90      -99.90      -99.90      -99.90    
       -99.90      -99.90      -99.90      -99.90      -99.90      -99.90      -99.90      -99.90      -99.90      -99.90    
       -99.90      -99.90      -99.90      -99.90      -99.90      -99.90      -99.90      -99.90      -99.90      -99.90    
  38   -99.90      -99.90      -99.90      -99.90      -99.90      -99.90      -99.90      -99.90      -99.90      -99.90    
       -99.90      -99.90      -99.90      -99.90      -99.90      -99.90      -99.90      -99.90      -99.90      -99.90    
       -99.90      -99.90      -99.90      -99.90      -99.90      -99.90      -99.90      -99.90      -99.90      -99.90    
       -99.90      -99.90      -99.90      -99.90      -99.90      -99.90      -99.90      -99.90      -99.90      -99.90    
  39   -99.90      -99.90      -99.90      -99.90      -99.90      -99.90      -99.90      -99.90      -99.90      -99.90    
       -99.90      -99.90      -99.90      -99.90      -99.90      -99.90      -99.90      -99.90      -99.90      -99.90    
       -99.90      -99.90      -99.90      -99.90      -99.90      -99.90      -99.90      -99.90      -99.90      -99.90    
       -99.90      -99.90      -99.90      -99.90      -99.90      -99.90      -99.90      -99.90      -99.90      -99.90    
  40   -99.90      -99.90      -99.90      -99.90      -99.90      -99.90      -99.90      -99.90      -99.90      -99.90    
       -99.90      -99.90      -99.90      -99.90      -99.90      -99.90      -99.90      -99.90      -99.90      -99.90    
       -99.90      -99.90      -99.90      -99.90      -99.90      -99.90      -99.90      -99.90      -99.90      -99.90    
       -99.90      -99.90      -99.90      -99.90      -99.90      -99.90      -99.90      -99.90      -99.90      -99.90    
1
              HEAD IN LAYER 2 AT END OF TIME STEP 17 IN STRESS PERIOD 3
  ---------------------------------------------------------------------------

            1           2           3           4           5           6           7           8           9          10
           11          12          13          14          15          16          17          18          19          20
           21          22          23          24          25          26          27          28          29          30
           31          32          33          34          35          36          37          38          39          40
 ........................................................................................................................
   1   -99.90      -99.90      -99.90      -99.90      -99.90      -99.90      -99.90      -99.90      -99.90      -99.90    
       -99.90      -99.90      -99.90      -99.90      -99.90      -99.90      -99.90      -99.90      -99.90      -99.90    
       -99.90      -99.90      -99.90      -99.90      -99.90      -99.90      -99.90      -99.90      -99.90      -99.90    
       -99.90      -99.90      -99.90      -99.90      -99.90      -99.90      -99.90      -99.90      -99.90      -99.90    
   2   -99.90      -99.90      -99.90      -99.90      -99.90      -99.90      -99.90      -99.90      -99.90      -99.90    
       -99.90      -99.90      -99.90      -99.90      -99.90      -99.90      -99.90      -99.90      -99.90      -99.90    
       -99.90      -99.90      -99.90      -99.90      -99.90      -99.90      -99.90      -99.90      -99.90      -99.90    
       -99.90      -99.90      -99.90      -99.90      -99.90      -99.90      -99.90      -99.90      -99.90      -99.90    
   3   -99.90      -99.90      -99.90      -99.90      -99.90      -99.90      -99.90      -99.90      -99.90      -99.90    
       -99.90      -99.90      -99.90      -99.90      -99.90      -99.90      -99.90      -99.90      -99.90      -99.90    
       -99.90      -99.90      -99.90      -99.90      -99.90      -99.90      -99.90      -99.90      -99.90      -99.90    
       -99.90      -99.90      -99.90      -99.90      -99.90      -99.90      -99.90      -99.90      -99.90      -99.90    
   4   -99.90      -99.90      -99.90      -99.90      -99.90      -99.90      -99.90      -99.90      -99.90      -99.90    
       -99.90      -99.90      -99.90      -99.90      -99.90      -99.90      -99.90      -99.90      -99.90      -99.90    
       -99.90      -99.90      -99.90      -99.90      -99.90      -99.90      -99.90      -99.90      -99.90      -99.90    
       -99.90      -99.90      -99.90      -99.90      -99.90      -99.90      -99.90      -99.90      -99.90      -99.90    
   5   -99.90      -99.90      -99.90      -99.90      -99.90      -99.90      -99.90      -99.90      -99.90      -99.90    
       -99.90      -99.90      -99.90      -99.90      -99.90      -99.90      -99.90      -99.90      -99.90      -99.90    
       -99.90      -99.90      -99.90      -99.90      -99.90      -99.90      -99.90      -99.90      -99.90      -99.90    
       -99.90      -99.90      -99.90      -99.90      -99.90      -99.90      -99.90      -99.90      -99.90      -99.90    
   6   -99.90      -99.90      -99.90      -99.90      -99.90      -99.90      -99.90      -99.90      -99.90      -99.90    
       -99.90      -99.90      -99.90      -99.90      -99.90      -99.90      -99.90      -99.90      -99.90      -99.90    
       -99.90      -99.90      -99.90      -99.90      -99.90      -99.90      -99.90      -99.90      -99.90      -99.90    
       -99.90      -99.90      -99.90      -99.90      -99.90      -99.90      -99.90      -99.90      -99.90      -99.90    
   7   -99.90      -99.90      -99.90      -99.90      -99.90      -99.90      -99.90      -99.90      -99.90      -99.90    
       -99.90      -99.90      -99.90      -99.90      -99.90      -99.90      -99.90      -99.90      -99.90      -99.90    
       -99.90      -99.90      -99.90      -99.90      -99.90      -99.90      -99.90      -99.90      -99.90      -99.90    
       -99.90      -99.90      -99.90      -99.90      -99.90      -99.90      -99.90      -99.90      -99.90      -99.90    
   8   -99.90      -99.90      -99.90      -99.90      -99.90      -99.90      -99.90      -99.90      -99.90      -99.90    
       -99.90      -99.90      -99.90      -99.90      -99.90      -99.90      -99.90      -99.90      -99.90      -99.90    
       -99.90      -99.90      -99.90      -99.90      -99.90      -99.90      -99.90      -99.90      -99.90      -99.90    
       -99.90      -99.90      -99.90      -99.90      -99.90      -99.90      -99.90      -99.90      -99.90      -99.90    
   9   -99.90      -99.90      -99.90      -99.90      -99.90      -99.90      -99.90      -99.90      -99.90      -99.90    
       -99.90      -99.90      -99.90      -99.90      -99.90      -99.90      -99.90      -99.90      -99.90      -99.90    
       -99.90      -99.90      -99.90      -99.90      -99.90      -99.90      -99.90      -99.90      -99.90      -99.90    
       -99.90      -99.90      -99.90      -99.90      -99.90      -99.90      -99.90      -99.90      -99.90      -99.90    
  10   -99.90      -99.90      -99.90      -99.90      -99.90      -99.90      -99.90      -99.90      -99.90      -99.90    
       -99.90      -99.90      -99.90      -99.90      -99.90      -99.90      -99.90      -99.90      -99.90      -99.90    
       -99.90      -99.90      -99.90      -99.90      -99.90      -99.90      -99.90      -99.90      -99.90      -99.90    
       -99.90      -99.90      -99.90      -99.90      -99.90      -99.90      -99.90      -99.90      -99.90      -99.90    
  11   -99.90      -99.90      -99.90      -99.90      -99.90      -99.90      -99.90      -99.90      -99.90      -99.90    
       -99.90      -99.90      -99.90      -99.90      -99.90      -99.90      -99.90      -99.90      -99.90      -99.90    
       -99.90      -99.90      -99.90      -99.90      -99.90      -99.90      -99.90      -99.90      -99.90      -99.90    
       -99.90      -99.90      -99.90      -99.90      -99.90      -99.90      -99.90      -99.90      -99.90      -99.90    
  12   -99.90      -99.90      -99.90      -99.90      -99.90      -99.90      -99.90      -99.90      -99.90      -99.90    
       -99.90      -99.90      -99.90      -99.90      -99.90      -99.90      -99.90      -99.90      -99.90      -99.90    
       -99.90      -99.90      -99.90      -99.90      -99.90      -99.90      -99.90      -99.90      -99.90      -99.90    
       -99.90      -99.90      -99.90      -99.90      -99.90      -99.90      -99.90      -99.90      -99.90      -99.90    
  13   -99.90      -99.90      -99.90      -99.90      -99.90      -99.90      -99.90      -99.90      -99.90      -99.90    
       -99.90      -99.90      -99.90      -99.90      -99.90      -99.90      -99.90      -99.90      -99.90      -99.90    
       -99.90      -99.90      -99.90      -99.90      -99.90      -99.90      -99.90      -99.90      -99.90      -99.90    
       -99.90      -99.90      -99.90      -99.90      -99.90      -99.90      -99.90      -99.90      -99.90      -99.90    
  14   -99.90      -99.90      -99.90      -99.90      -99.90      -99.90      -99.90      -99.90      -99.90      -99.90    
       -99.90      -99.90      -99.90      -99.90      -99.90      -99.90      -99.90      -99.90      -99.90      -99.90    
       -99.90      -99.90      -99.90      -99.90      -99.90      -99.90      -99.90      -99.90      -99.90      -99.90    
       -99.90      -99.90      -99.90      -99.90      -99.90      -99.90      -99.90      -99.90      -99.90      -99.90    
  15   -99.90      -99.90      -99.90      -99.90      -99.90      -99.90      -99.90      -99.90      -99.90      -99.90    
       -99.90      -99.90      -99.90      -99.90      -99.90      -99.90      -99.90      -99.90      -99.90      -99.90    
       -99.90      -99.90      -99.90      -99.90      -99.90      -99.90      -99.90      -99.90      -99.90      -99.90    
       -99.90      -99.90      -99.90      -99.90      -99.90      -99.90      -99.90      -99.90      -99.90      -99.90    
  16   -99.90      -99.90      -99.90      -99.90      -99.90      -99.90      -99.90      -99.90      -99.90      -99.90    
       -99.90      -99.90      -99.90      -99.90      -99.90      -99.90      -99.90      -99.90      -99.90      -99.90    
       -99.90      -99.90      -99.90      -99.90      -99.90      -99.90      -99.90      -99.90      -99.90      -99.90    
       -99.90      -99.90      -99.90      -99.90      -99.90      -99.90      -99.90      -99.90      -99.90      -99.90    
  17   -99.90      -99.90      -99.90      -99.90      -99.90      -99.90      -99.90      -99.90      -99.90      -99.90    
       -99.90      -99.90      -99.90      -99.90      -99.90      -99.90      -99.90      -99.90      -99.90      -99.90    
       -99.90      -99.90      -99.90      -99.90      -99.90      -99.90      -99.90      -99.90      -99.90      -99.90    
       -99.90      -99.90      -99.90      -99.90      -99.90      -99.90      -99.90      -99.90      -99.90      -99.90    
  18   -99.90      -99.90      -99.90      -99.90      -99.90      -99.90      -99.90      -99.90      -99.90      -99.90    
       -99.90      -99.90      -99.90      -99.90      -99.90      -99.90      -99.90      -99.90      -99.90      -99.90    
       -99.90      -99.90      -99.90      -99.90      -99.90      -99.90      -99.90      -99.90      -99.90      -99.90    
       -99.90      -99.90      -99.90      -99.90      -99.90      -99.90      -99.90      -99.90      -99.90      -99.90    
  19   -99.90      -99.90      -99.90      -99.90      -99.90      -99.90      -99.90      -99.90      -99.90      -99.90    
       -99.90      -99.90      -99.90      -99.90      -99.90      -99.90      -99.90      -99.90      -99.90      -99.90    
       -99.90      -99.90      -99.90      -99.90      -99.90      -99.90      -99.90      -99.90      -99.90      -99.90    
       -99.90      -99.90      -99.90      -99.90      -99.90      -99.90      -99.90      -99.90      -99.90      -99.90    
  20   -99.90      -99.90      -99.90      -99.90      -99.90      -99.90      -99.90      -99.90      -99.90      -99.90    
       -99.90      -99.90      -99.90      -99.90      -99.90      -99.90      -99.90      -99.90      -99.90      -99.90    
       -99.90      -99.90      -99.90      -99.90      -99.90      -99.90      -99.90      -99.90      -99.90      -99.90    
       -99.90      -99.90      -99.90      -99.90      -99.90      -99.90      -99.90      -99.90      -99.90      -99.90    
  21   -99.90      -99.90      -99.90      -99.90      -99.90      -99.90      -99.90      -99.90      -99.90      -99.90    
       -99.90      -99.90      -99.90      -99.90      -99.90      -99.90      -99.90      -99.90      -99.90      -99.90    
       -99.90      -99.90      -99.90      -99.90      -99.90      -99.90      -99.90      -99.90      -99.90      -99.90    
       -99.90      -99.90      -99.90      -99.90      -99.90      -99.90      -99.90      -99.90      -99.90      -99.90    
  22   -99.90      -99.90      -99.90      -99.90      -99.90      -99.90      -99.90      -99.90      -99.90      -99.90    
       -99.90      -99.90      -99.90      -99.90      -99.90      -99.90      -99.90      -99.90      -99.90      -99.90    
       -99.90      -99.90      -99.90      -99.90      -99.90      -99.90      -99.90      -99.90      -99.90      -99.90    
       -99.90      -99.90      -99.90      -99.90      -99.90      -99.90      -99.90      -99.90      -99.90      -99.90    
  23   -99.90      -99.90      -99.90      -99.90      -99.90      -99.90      -99.90      -99.90      -99.90      -99.90    
       -99.90      -99.90      -99.90      -99.90      -99.90      -99.90      -99.90      -99.90      -99.90      -99.90    
       -99.90      -99.90      -99.90      -99.90      -99.90      -99.90      -99.90      -99.90      -99.90      -99.90    
       -99.90      -99.90      -99.90      -99.90      -99.90      -99.90      -99.90      -99.90      -99.90      -99.90    
  24   -99.90      -99.90      -99.90      -99.90      -99.90      -99.90      -99.90      -99.90      -99.90      -99.90    
       -99.90      -99.90      -99.90      -99.90      -99.90      -99.90      -99.90      -99.90      -99.90      -99.90    
       -99.90      -99.90      -99.90      -99.90      -99.90      -99.90      -99.90      -99.90      -99.90      -99.90    
       -99.90      -99.90      -99.90      -99.90      -99.90      -99.90      -99.90      -99.90      -99.90      -99.90    
  25   -99.90      -99.90      -99.90      -99.90      -99.90      -99.90      -99.90      -99.90      -99.90      -99.90    
       -99.90      -99.90      -99.90      -99.90      -99.90      -99.90      -99.90      -99.90      -99.90      -99.90    
       -99.90      -99.90      -99.90      -99.90      -99.90      -99.90      -99.90      -99.90      -99.90      -99.90    
       -99.90      -99.90      -99.90      -99.90      -99.90      -99.90      -99.90      -99.90      -99.90      -99.90    
  26   -99.90      -99.90      -99.90      -99.90      -99.90      -99.90      -99.90      -99.90      -99.90      -99.90    
       -99.90      -99.90      -99.90      -99.90      -99.90      -99.90      -99.90      -99.90      -99.90      -99.90    
       -99.90      -99.90      -99.90      -99.90      -99.90      -99.90      -99.90      -99.90      -99.90      -99.90    
       -99.90      -99.90      -99.90      -99.90      -99.90      -99.90      -99.90      -99.90      -99.90      -99.90    
  27   -99.90      -99.90      -99.90      -99.90      -99.90      -99.90      -99.90      -99.90      -99.90      -99.90    
       -99.90      -99.90      -99.90      -99.90      -99.90      -99.90      -99.90      -99.90      -99.90      -99.90    
       -99.90      -99.90      -99.90      -99.90      -99.90      -99.90      -99.90      -99.90      -99.90      -99.90    
       -99.90      -99.90      -99.90      -99.90      -99.90      -99.90      -99.90      -99.90      -99.90      -99.90    
  28   -99.90      -99.90      -99.90      -99.90      -99.90      -99.90      -99.90      -99.90      -99.90      -99.90    
       -99.90      -99.90      -99.90      -99.90      -99.90      -99.90      -99.90      -99.90      -99.90      -99.90    
       -99.90      -99.90      -99.90      -99.90      -99.90      -99.90      -99.90      -99.90      -99.90      -99.90    
       -99.90      -99.90      -99.90      -99.90      -99.90      -99.90      -99.90      -99.90      -99.90      -99.90    
  29   -99.90      -99.90      -99.90      -99.90      -99.90      -99.90      -99.90      -99.90      -99.90      -99.90    
       -99.90      -99.90      -99.90      -99.90      -99.90      -99.90      -99.90      -99.90      -99.90      -99.90    
       -99.90      -99.90      -99.90      -99.90      -99.90      -99.90      -99.90      -99.90      -99.90      -99.90    
       -99.90      -99.90      -99.90      -99.90      -99.90      -99.90      -99.90      -99.90      -99.90      -99.90    
  30   -99.90      -99.90      -99.90      -99.90      -99.90      -99.90      -99.90      -99.90      -99.90      -99.90    
       -99.90      -99.90      -99.90      -99.90      -99.90      -99.90      -99.90      -99.90      -99.90      -99.90    
       -99.90      -99.90      -99.90      -99.90      -99.90      -99.90      -99.90      -99.90      -99.90      -99.90    
       -99.90      -99.90      -99.90      -99.90      -99.90      -99.90      -99.90      -99.90      -99.90      -99.90    
  31   -99.90      -99.90      -99.90      -99.90      -99.90      -99.90      -99.90      -99.90      -99.90      -99.90    
       -99.90      -99.90      -99.90      -99.90      -99.90      -99.90      -99.90      -99.90      -99.90      -99.90    
       -99.90      -99.90      -99.90      -99.90      -99.90      -99.90      -99.90      -99.90      -99.90      -99.90    
       -99.90      -99.90      -99.90      -99.90      -99.90      -99.90      -99.90      -99.90      -99.90      -99.90    
  32   -99.90      -99.90      -99.90      -99.90      -99.90      -99.90      -99.90      -99.90      -99.90      -99.90    
       -99.90      -99.90      -99.90      -99.90      -99.90      -99.90      -99.90      -99.90      -99.90      -99.90    
       -99.90      -99.90      -99.90      -99.90      -99.90      -99.90      -99.90      -99.90      -99.90      -99.90    
       -99.90      -99.90      -99.90      -99.90      -99.90      -99.90      -99.90      -99.90      -99.90      -99.90    
  33   -99.90      -99.90      -99.90      -99.90      -99.90      -99.90      -99.90      -99.90      -99.90      -99.90    
       -99.90      -99.90      -99.90      -99.90      -99.90      -99.90      -99.90      -99.90      -99.90      -99.90    
       -99.90      -99.90      -99.90      -99.90      -99.90      -99.90      -99.90      -99.90      -99.90      -99.90    
       -99.90      -99.90      -99.90      -99.90      -99.90      -99.90      -99.90      -99.90      -99.90      -99.90    
  34   -99.90      -99.90      -99.90      -99.90      -99.90      -99.90      -99.90      -99.90      -99.90      -99.90    
       -99.90      -99.90      -99.90      -99.90      -99.90      -99.90      -99.90      -99.90      -99.90      -99.90    
       -99.90      -99.90      -99.90      -99.90      -99.90      -99.90      -99.90      -99.90      -99.90      -99.90    
       -99.90      -99.90      -99.90      -99.90      -99.90      -99.90      -99.90      -99.90      -99.90      -99.90    
  35   -99.90      -99.90      -99.90      -99.90      -99.90      -99.90      -99.90      -99.90      -99.90      -99.90    
       -99.90      -99.90      -99.90      -99.90      -99.90      -99.90      -99.90      -99.90      -99.90      -99.90    
       -99.90      -99.90      -99.90      -99.90      -99.90      -99.90      -99.90      -99.90      -99.90      -99.90    
       -99.90      -99.90      -99.90      -99.90      -99.90      -99.90      -99.90      -99.90      -99.90      -99.90    
  36   -99.90      -99.90      -99.90      -99.90      -99.90      -99.90      -99.90      -99.90      -99.90      -99.90    
       -99.90      -99.90      -99.90      -99.90      -99.90      -99.90      -99.90      -99.90      -99.90      -99.90    
       -99.90      -99.90      -99.90      -99.90      -99.90      -99.90      -99.90      -99.90      -99.90      -99.90    
       -99.90      -99.90      -99.90      -99.90      -99.90      -99.90      -99.90      -99.90      -99.90      -99.90    
  37   -99.90      -99.90      -99.90      -99.90      -99.90      -99.90      -99.90      -99.90      -99.90      -99.90    
       -99.90      -99.90      -99.90      -99.90      -99.90      -99.90      -99.90      -99.90      -99.90      -99.90    
       -99.90      -99.90      -99.90      -99.90      -99.90      -99.90      -99.90      -99.90      -99.90      -99.90    
       -99.90      -99.90      -99.90      -99.90      -99.90      -99.90      -99.90      -99.90      -99.90      -99.90    
  38   -99.90      -99.90      -99.90      -99.90      -99.90      -99.90      -99.90      -99.90      -99.90      -99.90    
       -99.90      -99.90      -99.90      -99.90      -99.90      -99.90      -99.90      -99.90      -99.90      -99.90    
       -99.90      -99.90      -99.90      -99.90      -99.90      -99.90      -99.90      -99.90      -99.90      -99.90    
       -99.90      -99.90      -99.90      -99.90      -99.90      -99.90      -99.90      -99.90      -99.90      -99.90    
  39   -99.90      -99.90      -99.90      -99.90      -99.90      -99.90      -99.90      -99.90      -99.90      -99.90    
       -99.90      -99.90      -99.90      -99.90      -99.90      -99.90      -99.90      -99.90      -99.90      -99.90    
       -99.90      -99.90      -99.90      -99.90      -99.90      -99.90      -99.90      -99.90      -99.90      -99.90    
       -99.90      -99.90      -99.90      -99.90      -99.90      -99.90      -99.90      -99.90      -99.90      -99.90    
  40   -99.90      -99.90      -99.90      -99.90      -99.90      -99.90      -99.90      -99.90      -99.90      -99.90    
       -99.90      -99.90      -99.90      -99.90      -99.90      -99.90      -99.90      -99.90      -99.90      -99.90    
       -99.90      -99.90      -99.90      -99.90      -99.90      -99.90      -99.90      -99.90      -99.90      -99.90    
       -99.90      -99.90      -99.90      -99.90      -99.90      -99.90      -99.90      -99.90      -99.90      -99.90    
1
              HEAD IN LAYER 3 AT END OF TIME STEP 17 IN STRESS PERIOD 3
  ---------------------------------------------------------------------------

            1           2           3           4           5           6           7           8           9          10
           11          12          13          14          15          16          17          18          19          20
           21          22          23          24          25          26          27          28          29          30
           31          32          33          34          35          36          37          38          39          40
 ........................................................................................................................
   1   -99.90      -99.90      -99.90      -99.90      -99.90      -99.90      -99.90      -99.90      -99.90      -99.90    
       -99.90      -99.90      -99.90      -99.90      -99.90      -99.90      -99.90      -99.90      -99.90      -99.90    
       -99.90      -99.90      -99.90      -99.90      -99.90      -99.90      -99.90      -99.90      -99.90      -99.90    
       -99.90      -99.90      -99.90      -99.90      -99.90      -99.90      -99.90      -99.90      -99.90      -99.90    
   2   -99.90      -99.90      -99.90      -99.90      -99.90      -99.90      -99.90      -99.90      -99.90      -99.90    
       -99.90      -99.90      -99.90      -99.90      -99.90      -99.90      -99.90      -99.90      -99.90      -99.90    
       -99.90      -99.90      -99.90      -99.90      -99.90      -99.90      -99.90      -99.90      -99.90      -99.90    
       -99.90      -99.90      -99.90      -99.90      -99.90      -99.90      -99.90      -99.90      -99.90      -99.90    
   3   -99.90      -99.90      -99.90      -99.90      -99.90      -99.90      -99.90      -99.90      -99.90      -99.90    
       -99.90      -99.90      -99.90      -99.90      -99.90      -99.90      -99.90      -99.90      -99.90      -99.90    
       -99.90      -99.90      -99.90      -99.90      -99.90      -99.90      -99.90      -99.90      -99.90      -99.90    
       -99.90      -99.90      -99.90      -99.90      -99.90      -99.90      -99.90      -99.90      -99.90      -99.90    
   4   -99.90      -99.90      -99.90      -99.90      -99.90      -99.90      -99.90      -99.90      -99.90      -99.90    
       -99.90      -99.90      -99.90      -99.90      -99.90      -99.90      -99.90      -99.90      -99.90      -99.90    
       -99.90      -99.90      -99.90      -99.90      -99.90      -99.90      -99.90      -99.90      -99.90      -99.90    
       -99.90      -99.90      -99.90      -99.90      -99.90      -99.90      -99.90      -99.90      -99.90      -99.90    
   5   -99.90      -99.90      -99.90      -99.90      -99.90      -99.90      -99.90      -99.90      -99.90      -99.90    
       -99.90      -99.90      -99.90      -99.90      -99.90      -99.90      -99.90      -99.90      -99.90      -99.90    
       -99.90      -99.90      -99.90      -99.90      -99.90      -99.90      -99.90      -99.90      -99.90      -99.90    
       -99.90      -99.90      -99.90      -99.90      -99.90      -99.90      -99.90      -99.90      -99.90      -99.90    
   6   -99.90      -99.90      -99.90      -99.90      -99.90      -99.90      -99.90      -99.90      -99.90      -99.90    
       -99.90      -99.90      -99.90      -99.90      -99.90      -99.90      -99.90      -99.90      -99.90      -99.90    
       -99.90      -99.90      -99.90      -99.90      -99.90      -99.90      -99.90      -99.90      -99.90      -99.90    
       -99.90      -99.90      -99.90      -99.90      -99.90      -99.90      -99.90      -99.90      -99.90      -99.90    
   7   -99.90      -99.90      -99.90      -99.90      -99.90      -99.90      -99.90      -99.90      -99.90      -99.90    
       -99.90      -99.90      -99.90      -99.90      -99.90      -99.90      -99.90      -99.90      -99.90      -99.90    
       -99.90      -99.90      -99.90      -99.90      -99.90      -99.90      -99.90      -99.90      -99.90      -99.90    
       -99.90      -99.90      -99.90      -99.90      -99.90      -99.90      -99.90      -99.90      -99.90      -99.90    
   8   -99.90      -99.90      -99.90      -99.90      -99.90      -99.90      -99.90      -99.90      -99.90      -99.90    
       -99.90      -99.90      -99.90      -99.90      -99.90      -99.90      -99.90      -99.90      -99.90      -99.90    
       -99.90      -99.90      -99.90      -99.90      -99.90      -99.90      -99.90      -99.90      -99.90      -99.90    
       -99.90      -99.90      -99.90      -99.90      -99.90      -99.90      -99.90      -99.90      -99.90      -99.90    
   9   -99.90      -99.90      -99.90      -99.90      -99.90      -99.90      -99.90      -99.90      -99.90      -99.90    
       -99.90      -99.90      -99.90      -99.90      -99.90      -99.90      -99.90      -99.90      -99.90      -99.90    
       -99.90      -99.90      -99.90      -99.90      -99.90      -99.90      -99.90      -99.90      -99.90      -99.90    
       -99.90      -99.90      -99.90      -99.90      -99.90      -99.90      -99.90      -99.90      -99.90      -99.90    
  10   -99.90      -99.90      -99.90      -99.90      -99.90      -99.90      -99.90      -99.90      -99.90      -99.90    
       -99.90      -99.90      -99.90      -99.90      -99.90      -99.90      -99.90      -99.90      -99.90      -99.90    
       -99.90      -99.90      -99.90      -99.90      -99.90      -99.90      -99.90      -99.90      -99.90      -99.90    
       -99.90      -99.90      -99.90      -99.90      -99.90      -99.90      -99.90      -99.90      -99.90      -99.90    
  11   -99.90      -99.90      -99.90      -99.90      -99.90      -99.90      -99.90      -99.90      -99.90      -99.90    
       -99.90      -99.90      -99.90      -99.90      -99.90      -99.90      -99.90      -99.90      -99.90      -99.90    
       -99.90      -99.90      -99.90      -99.90      -99.90      -99.90      -99.90      -99.90      -99.90      -99.90    
       -99.90      -99.90      -99.90      -99.90      -99.90      -99.90      -99.90      -99.90      -99.90      -99.90    
  12   -99.90      -99.90      -99.90      -99.90      -99.90      -99.90      -99.90      -99.90      -99.90      -99.90    
       -99.90      -99.90      -99.90      -99.90      -99.90      -99.90      -99.90      -99.90      -99.90      -99.90    
       -99.90      -99.90      -99.90      -99.90      -99.90      -99.90      -99.90      -99.90      -99.90      -99.90    
       -99.90      -99.90      -99.90      -99.90      -99.90      -99.90      -99.90      -99.90      -99.90      -99.90    
  13   -99.90      -99.90      -99.90      -99.90      -99.90      -99.90      -99.90      -99.90      -99.90      -99.90    
       -99.90      -99.90      -99.90      -99.90      -99.90      -99.90      -99.90      -99.90      -99.90      -99.90    
       -99.90      -99.90      -99.90      -99.90      -99.90      -99.90      -99.90      -99.90      -99.90      -99.90    
       -99.90      -99.90      -99.90      -99.90      -99.90      -99.90      -99.90      -99.90      -99.90      -99.90    
  14   -99.90      -99.90      -99.90      -99.90      -99.90      -99.90      -99.90      -99.90      -99.90      -99.90    
       -99.90      -99.90      -99.90      -99.90      -99.90      -99.90      -99.90      -99.90      -99.90      -99.90    
       -99.90      -99.90      -99.90      -99.90      -99.90      -99.90      -99.90      -99.90      -99.90      -99.90    
       -99.90      -99.90      -99.90      -99.90      -99.90      -99.90      -99.90      -99.90      -99.90      -99.90    
  15   -99.90      -99.90      -99.90      -99.90      -99.90      -99.90      -99.90      -99.90      -99.90      -99.90    
       -99.90      -99.90      -99.90      -99.90      -99.90      -99.90      -99.90      -99.90      -99.90      -99.90    
       -99.90      -99.90      -99.90      -99.90      -99.90      -99.90      -99.90      -99.90      -99.90      -99.90    
       -99.90      -99.90      -99.90      -99.90      -99.90      -99.90      -99.90      -99.90      -99.90      -99.90    
  16   -99.90      -99.90      -99.90      -99.90      -99.90      -99.90      -99.90      -99.90      -99.90      -99.90    
       -99.90      -99.90      -99.90      -99.90      -99.90      -99.90      -99.90      -99.90      -99.90      -99.90    
       -99.90      -99.90      -99.90      -99.90      -99.90      -99.90      -99.90      -99.90      -99.90      -99.90    
       -99.90      -99.90      -99.90      -99.90      -99.90      -99.90      -99.90      -99.90      -99.90      -99.90    
  17   -99.90      -99.90      -99.90      -99.90      -99.90      -99.90      -99.90      -99.90      -99.90      -99.90    
       -99.90      -99.90      -99.90      -99.90      -99.90      -99.90      -99.90      -99.90      -99.90      -99.90    
       -99.90      -99.90      -99.90      -99.90      -99.90      -99.90      -99.90      -99.90      -99.90      -99.90    
       -99.90      -99.90      -99.90      -99.90      -99.90      -99.90      -99.90      -99.90      -99.90      -99.90    
  18   -99.90      -99.90      -99.90      -99.90      -99.90      -99.90      -99.90      -99.90      -99.90      -99.90    
       -99.90      -99.90      -99.90      -99.90      -99.90      -99.90      -99.90      -99.90      -99.90      -99.90    
       -99.90      -99.90      -99.90      -99.90      -99.90      -99.90      -99.90      -99.90      -99.90      -99.90    
       -99.90      -99.90      -99.90      -99.90      -99.90      -99.90      -99.90      -99.90      -99.90      -99.90    
  19   -99.90      -99.90      -99.90      -99.90      -99.90      -99.90      -99.90      -99.90      -99.90      -99.90    
       -99.90      -99.90      -99.90      -99.90      -99.90      -99.90      -99.90      -99.90      -99.90      -99.90    
       -99.90      -99.90      -99.90      -99.90      -99.90      -99.90      -99.90      -99.90      -99.90      -99.90    
       -99.90      -99.90      -99.90      -99.90      -99.90      -99.90      -99.90      -99.90      -99.90      -99.90    
  20   -99.90      -99.90      -99.90      -99.90      -99.90      -99.90      -99.90      -99.90      -99.90      -99.90    
       -99.90      -99.90      -99.90      -99.90      -99.90      -99.90      -99.90      -99.90      -99.90      -99.90    
       -99.90      -99.90      -99.90      -99.90      -99.90      -99.90      -99.90      -99.90      -99.90      -99.90    
       -99.90      -99.90      -99.90      -99.90      -99.90      -99.90      -99.90      -99.90      -99.90      -99.90    
  21   -99.90      -99.90      -99.90      -99.90      -99.90      -99.90      -99.90      -99.90      -99.90      -99.90    
       -99.90      -99.90      -99.90      -99.90      -99.90      -99.90      -99.90      -99.90      -99.90      -99.90    
       -99.90      -99.90      -99.90      -99.90      -99.90      -99.90      -99.90      -99.90      -99.90      -99.90    
       -99.90      -99.90      -99.90      -99.90      -99.90      -99.90      -99.90      -99.90      -99.90      -99.90    
  22   -99.90      -99.90      -99.90      -99.90      -99.90      -99.90      -99.90      -99.90      -99.90      -99.90    
       -99.90      -99.90      -99.90      -99.90      -99.90      -99.90      -99.90      -99.90      -99.90      -99.90    
       -99.90      -99.90      -99.90      -99.90      -99.90      -99.90      -99.90      -99.90      -99.90      -99.90    
       -99.90      -99.90      -99.90      -99.90      -99.90      -99.90      -99.90      -99.90      -99.90      -99.90    
  23   -99.90      -99.90      -99.90      -99.90      -99.90      -99.90      -99.90      -99.90      -99.90      -99.90    
       -99.90      -99.90      -99.90      -99.90      -99.90      -99.90      -99.90      -99.90      -99.90      -99.90    
       -99.90      -99.90      -99.90      -99.90      -99.90      -99.90      -99.90      -99.90      -99.90      -99.90    
       -99.90      -99.90      -99.90      -99.90      -99.90      -99.90      -99.90      -99.90      -99.90      -99.90    
  24   -99.90      -99.90      -99.90      -99.90      -99.90      -99.90      -99.90      -99.90      -99.90      -99.90    
       -99.90      -99.90      -99.90      -99.90      -99.90      -99.90      -99.90      -99.90      -99.90      -99.90    
       -99.90      -99.90      -99.90      -99.90      -99.90      -99.90      -99.90      -99.90      -99.90      -99.90    
       -99.90      -99.90      -99.90      -99.90      -99.90      -99.90      -99.90      -99.90      -99.90      -99.90    
  25   -99.90      -99.90      -99.90      -99.90      -99.90      -99.90      -99.90      -99.90      -99.90      -99.90    
       -99.90      -99.90      -99.90      -99.90      -99.90      -99.90      -99.90      -99.90      -99.90      -99.90    
       -99.90      -99.90      -99.90      -99.90      -99.90      -99.90      -99.90      -99.90      -99.90      -99.90    
       -99.90      -99.90      -99.90      -99.90      -99.90      -99.90      -99.90      -99.90      -99.90      -99.90    
  26   -99.90      -99.90      -99.90      -99.90      -99.90      -99.90      -99.90      -99.90      -99.90      -99.90    
       -99.90      -99.90      -99.90      -99.90      -99.90      -99.90      -99.90      -99.90      -99.90      -99.90    
       -99.90      -99.90      -99.90      -99.90      -99.90      -99.90      -99.90      -99.90      -99.90      -99.90    
       -99.90      -99.90      -99.90      -99.90      -99.90      -99.90      -99.90      -99.90      -99.90      -99.90    
  27   -99.90      -99.90      -99.90      -99.90      -99.90      -99.90      -99.90      -99.90      -99.90      -99.90    
       -99.90      -99.90      -99.90      -99.90      -99.90      -99.90      -99.90      -99.90      -99.90      -99.90    
       -99.90      -99.90      -99.90      -99.90      -99.90      -99.90      -99.90      -99.90      -99.90      -99.90    
       -99.90      -99.90      -99.90      -99.90      -99.90      -99.90      -99.90      -99.90      -99.90      -99.90    
  28   -99.90      -99.90      -99.90      -99.90      -99.90      -99.90      -99.90      -99.90      -99.90      -99.90    
       -99.90      -99.90      -99.90      -99.90      -99.90      -99.90      -99.90      -99.90      -99.90      -99.90    
       -99.90      -99.90      -99.90      -99.90      -99.90      -99.90      -99.90      -99.90      -99.90      -99.90    
       -99.90      -99.90      -99.90      -99.90      -99.90      -99.90      -99.90      -99.90      -99.90      -99.90    
  29   -99.90      -99.90      -99.90      -99.90      -99.90      -99.90      -99.90      -99.90      -99.90      -99.90    
       -99.90      -99.90      -99.90      -99.90      -99.90      -99.90      -99.90      -99.90      -99.90      -99.90    
       -99.90      -99.90      -99.90      -99.90      -99.90      -99.90      -99.90      -99.90      -99.90      -99.90    
       -99.90      -99.90      -99.90      -99.90      -99.90      -99.90      -99.90      -99.90      -99.90      -99.90    
  30   -99.90      -99.90      -99.90      -99.90      -99.90      -99.90      -99.90      -99.90      -99.90      -99.90    
       -99.90      -99.90      -99.90      -99.90      -99.90      -99.90      -99.90      -99.90      -99.90      -99.90    
       -99.90      -99.90      -99.90      -99.90      -99.90      -99.90      -99.90      -99.90      -99.90      -99.90    
       -99.90      -99.90      -99.90      -99.90      -99.90      -99.90      -99.90      -99.90      -99.90      -99.90    
  31   -99.90      -99.90      -99.90      -99.90      -99.90      -99.90      -99.90      -99.90      -99.90      -99.90    
       -99.90      -99.90      -99.90      -99.90      -99.90      -99.90      -99.90      -99.90      -99.90      -99.90    
       -99.90      -99.90      -99.90      -99.90      -99.90      -99.90      -99.90      -99.90      -99.90      -99.90    
       -99.90      -99.90      -99.90      -99.90      -99.90      -99.90      -99.90      -99.90      -99.90      -99.90    
  32   -99.90      -99.90      -99.90      -99.90      -99.90      -99.90      -99.90      -99.90      -99.90      -99.90    
       -99.90      -99.90      -99.90      -99.90      -99.90      -99.90      -99.90      -99.90      -99.90      -99.90    
       -99.90      -99.90      -99.90      -99.90      -99.90      -99.90      -99.90      -99.90      -99.90      -99.90    
       -99.90      -99.90      -99.90      -99.90      -99.90      -99.90      -99.90      -99.90      -99.90      -99.90    
  33   -99.90      -99.90      -99.90      -99.90      -99.90      -99.90      -99.90      -99.90      -99.90      -99.90    
       -99.90      -99.90      -99.90      -99.90      -99.90      -99.90      -99.90      -99.90      -99.90      -99.90    
       -99.90      -99.90      -99.90      -99.90      -99.90      -99.90      -99.90      -99.90      -99.90      -99.90    
       -99.90      -99.90      -99.90      -99.90      -99.90      -99.90      -99.90      -99.90      -99.90      -99.90    
  34   -99.90      -99.90      -99.90      -99.90      -99.90      -99.90      -99.90      -99.90      -99.90      -99.90    
       -99.90      -99.90      -99.90      -99.90      -99.90      -99.90      -99.90      -99.90      -99.90      -99.90    
       -99.90      -99.90      -99.90      -99.90      -99.90      -99.90      -99.90      -99.90      -99.90      -99.90    
       -99.90      -99.90      -99.90      -99.90      -99.90      -99.90      -99.90      -99.90      -99.90      -99.90    
  35   -99.90      -99.90      -99.90      -99.90      -99.90      -99.90      -99.90      -99.90      -99.90      -99.90    
       -99.90      -99.90      -99.90      -99.90      -99.90      -99.90      -99.90      -99.90      -99.90      -99.90    
       -99.90      -99.90      -99.90      -99.90      -99.90      -99.90      -99.90      -99.90      -99.90      -99.90    
       -99.90      -99.90      -99.90      -99.90      -99.90      -99.90      -99.90      -99.90      -99.90      -99.90    
  36   -99.90      -99.90      -99.90      -99.90      -99.90      -99.90      -99.90      -99.90      -99.90      -99.90    
       -99.90      -99.90      -99.90      -99.90      -99.90      -99.90      -99.90      -99.90      -99.90      -99.90    
       -99.90      -99.90      -99.90      -99.90      -99.90      -99.90      -99.90      -99.90      -99.90      -99.90    
       -99.90      -99.90      -99.90      -99.90      -99.90      -99.90      -99.90      -99.90      -99.90      -99.90    
  37   -99.90      -99.90      -99.90      -99.90      -99.90      -99.90      -99.90      -99.90      -99.90      -99.90    
       -99.90      -99.90      -99.90      -99.90      -99.90      -99.90      -99.90      -99.90      -99.90      -99.90    
       -99.90      -99.90      -99.90      -99.90      -99.90      -99.90      -99.90      -99.90      -99.90      -99.90    
       -99.90      -99.90      -99.90      -99.90      -99.90      -99.90      -99.90      -99.90      -99.90      -99.90    
  38   -99.90      -99.90      -99.90      -99.90      -99.90      -99.90      -99.90      -99.90      -99.90      -99.90    
       -99.90      -99.90      -99.90      -99.90      -99.90      -99.90      -99.90      -99.90      -99.90      -99.90    
       -99.90      -99.90      -99.90      -99.90      -99.90      -99.90      -99.90      -99.90      -99.90      -99.90    
       -99.90      -99.90      -99.90      -99.90      -99.90      -99.90      -99.90      -99.90      -99.90      -99.90    
  39   -99.90      -99.90      -99.90      -99.90      -99.90      -99.90      -99.90      -99.90      -99.90      -99.90    
       -99.90      -99.90      -99.90      -99.90      -99.90      -99.90      -99.90      -99.90      -99.90      -99.90    
       -99.90      -99.90      -99.90      -99.90      -99.90      -99.90      -99.90      -99.90      -99.90      -99.90    
       -99.90      -99.90      -99.90      -99.90      -99.90      -99.90      -99.90      -99.90      -99.90      -99.90    
  40   -99.90      -99.90      -99.90      -99.90      -99.90      -99.90      -99.90      -99.90      -99.90      -99.90    
       -99.90      -99.90      -99.90      -99.90      -99.90      -99.90      -99.90      -99.90      -99.90      -99.90    
       -99.90      -99.90      -99.90      -99.90      -99.90      -99.90      -99.90      -99.90      -99.90      -99.90    
       -99.90      -99.90      -99.90      -99.90      -99.90      -99.90      -99.90      -99.90      -99.90      -99.90    
1
              HEAD IN LAYER 4 AT END OF TIME STEP 17 IN STRESS PERIOD 3
  ---------------------------------------------------------------------------

            1           2           3           4           5           6           7           8           9          10
           11          12          13          14          15          16          17          18          19          20
           21          22          23          24          25          26          27          28          29          30
           31          32          33          34          35          36          37          38          39          40
 ........................................................................................................................
   1    53.80       52.20      -99.90      -99.90      -99.90      -99.90      -99.90      -99.90      -99.90      -99.90    
       -99.90      -99.90      -99.90      -99.90      -99.90      -99.90      -99.90      -99.90      -99.90      -99.90    
       -99.90      -99.90      -99.90      -99.90      -99.90      -99.90      -99.90      -99.90      -99.90      -99.90    
       -99.90      -99.90      -99.90      -99.90      -99.90      -99.90      -99.90      -99.90      -99.90      -99.90    
   2    52.20       50.85      -99.90      -99.90      -99.90      -99.90      -99.90      -99.90      -99.90      -99.90    
       -99.90      -99.90      -99.90      -99.90      -99.90      -99.90      -99.90      -99.90      -99.90      -99.90    
       -99.90      -99.90      -99.90      -99.90      -99.90      -99.90      -99.90      -99.90      -99.90      -99.90    
       -99.90      -99.90      -99.90      -99.90      -99.90      -99.90      -99.90      -99.90      -99.90      -99.90    
   3   -99.90      -99.90      -99.90      -99.90      -99.90      -99.90      -99.90      -99.90      -99.90      -99.90    
       -99.90      -99.90      -99.90      -99.90      -99.90      -99.90      -99.90      -99.90      -99.90      -99.90    
       -99.90      -99.90      -99.90      -99.90      -99.90      -99.90      -99.90      -99.90      -99.90      -99.90    
       -99.90      -99.90      -99.90      -99.90      -99.90      -99.90      -99.90      -99.90      -99.90      -99.90    
   4   -99.90      -99.90      -99.90      -99.90      -99.90      -99.90      -99.90      -99.90      -99.90      -99.90    
       -99.90      -99.90      -99.90      -99.90      -99.90      -99.90      -99.90      -99.90      -99.90      -99.90    
       -99.90      -99.90      -99.90      -99.90      -99.90      -99.90      -99.90      -99.90      -99.90      -99.90    
       -99.90      -99.90      -99.90      -99.90      -99.90      -99.90      -99.90      -99.90      -99.90      -99.90    
   5   -99.90      -99.90      -99.90      -99.90      -99.90      -99.90      -99.90      -99.90      -99.90      -99.90    
       -99.90      -99.90      -99.90      -99.90      -99.90      -99.90      -99.90      -99.90      -99.90      -99.90    
       -99.90      -99.90      -99.90      -99.90      -99.90      -99.90      -99.90      -99.90      -99.90      -99.90    
       -99.90      -99.90      -99.90      -99.90      -99.90      -99.90      -99.90      -99.90      -99.90      -99.90    
   6   -99.90      -99.90      -99.90      -99.90      -99.90      -99.90      -99.90      -99.90      -99.90      -99.90    
       -99.90      -99.90      -99.90      -99.90      -99.90      -99.90      -99.90      -99.90      -99.90      -99.90    
       -99.90      -99.90      -99.90      -99.90      -99.90      -99.90      -99.90      -99.90      -99.90      -99.90    
       -99.90      -99.90      -99.90      -99.90      -99.90      -99.90      -99.90      -99.90      -99.90      -99.90    
   7   -99.90      -99.90      -99.90      -99.90      -99.90      -99.90      -99.90      -99.90      -99.90      -99.90    
       -99.90      -99.90      -99.90      -99.90      -99.90      -99.90      -99.90      -99.90      -99.90      -99.90    
       -99.90      -99.90      -99.90      -99.90      -99.90      -99.90      -99.90      -99.90      -99.90      -99.90    
       -99.90      -99.90      -99.90      -99.90      -99.90      -99.90      -99.90      -99.90      -99.90      -99.90    
   8   -99.90      -99.90      -99.90      -99.90      -99.90      -99.90      -99.90      -99.90      -99.90      -99.90    
       -99.90      -99.90      -99.90      -99.90      -99.90      -99.90      -99.90      -99.90      -99.90      -99.90    
       -99.90      -99.90      -99.90      -99.90      -99.90      -99.90      -99.90      -99.90      -99.90      -99.90    
       -99.90      -99.90      -99.90      -99.90      -99.90      -99.90      -99.90      -99.90      -99.90      -99.90    
   9   -99.90      -99.90      -99.90      -99.90      -99.90      -99.90      -99.90      -99.90      -99.90      -99.90    
       -99.90      -99.90      -99.90      -99.90      -99.90      -99.90      -99.90      -99.90      -99.90      -99.90    
       -99.90      -99.90      -99.90      -99.90      -99.90      -99.90      -99.90      -99.90      -99.90      -99.90    
       -99.90      -99.90      -99.90      -99.90      -99.90      -99.90      -99.90      -99.90      -99.90      -99.90    
  10   -99.90      -99.90      -99.90      -99.90      -99.90      -99.90      -99.90      -99.90      -99.90      -99.90    
       -99.90      -99.90      -99.90      -99.90      -99.90      -99.90      -99.90      -99.90      -99.90      -99.90    
       -99.90      -99.90      -99.90      -99.90      -99.90      -99.90      -99.90      -99.90      -99.90      -99.90    
       -99.90      -99.90      -99.90      -99.90      -99.90      -99.90      -99.90      -99.90      -99.90      -99.90    
  11   -99.90      -99.90      -99.90      -99.90      -99.90      -99.90      -99.90      -99.90      -99.90      -99.90    
       -99.90      -99.90      -99.90      -99.90      -99.90      -99.90      -99.90      -99.90      -99.90      -99.90    
       -99.90      -99.90      -99.90      -99.90      -99.90      -99.90      -99.90      -99.90      -99.90      -99.90    
       -99.90      -99.90      -99.90      -99.90      -99.90      -99.90      -99.90      -99.90      -99.90      -99.90    
  12   -99.90      -99.90      -99.90      -99.90      -99.90      -99.90      -99.90      -99.90      -99.90      -99.90    
       -99.90      -99.90      -99.90      -99.90      -99.90      -99.90      -99.90      -99.90      -99.90      -99.90    
       -99.90      -99.90      -99.90      -99.90      -99.90      -99.90      -99.90      -99.90      -99.90      -99.90    
       -99.90      -99.90      -99.90      -99.90      -99.90      -99.90      -99.90      -99.90      -99.90      -99.90    
  13   -99.90      -99.90      -99.90      -99.90      -99.90      -99.90      -99.90      -99.90      -99.90      -99.90    
       -99.90      -99.90      -99.90      -99.90      -99.90      -99.90      -99.90      -99.90      -99.90      -99.90    
       -99.90      -99.90      -99.90      -99.90      -99.90      -99.90      -99.90      -99.90      -99.90      -99.90    
       -99.90      -99.90      -99.90      -99.90      -99.90      -99.90      -99.90      -99.90      -99.90      -99.90    
  14   -99.90      -99.90      -99.90      -99.90      -99.90      -99.90      -99.90      -99.90      -99.90      -99.90    
       -99.90      -99.90      -99.90      -99.90      -99.90      -99.90      -99.90      -99.90      -99.90      -99.90    
       -99.90      -99.90      -99.90      -99.90      -99.90      -99.90      -99.90      -99.90      -99.90      -99.90    
       -99.90      -99.90      -99.90      -99.90      -99.90      -99.90      -99.90      -99.90      -99.90      -99.90    
  15   -99.90      -99.90      -99.90      -99.90      -99.90      -99.90      -99.90      -99.90      -99.90      -99.90    
       -99.90      -99.90      -99.90      -99.90      -99.90      -99.90      -99.90      -99.90      -99.90      -99.90    
       -99.90      -99.90      -99.90      -99.90      -99.90      -99.90      -99.90      -99.90      -99.90      -99.90    
       -99.90      -99.90      -99.90      -99.90      -99.90      -99.90      -99.90      -99.90      -99.90      -99.90    
  16   -99.90      -99.90      -99.90      -99.90      -99.90      -99.90      -99.90      -99.90      -99.90      -99.90    
       -99.90      -99.90      -99.90      -99.90      -99.90      -99.90      -99.90      -99.90      -99.90      -99.90    
       -99.90      -99.90      -99.90      -99.90      -99.90      -99.90      -99.90      -99.90      -99.90      -99.90    
       -99.90      -99.90      -99.90      -99.90      -99.90      -99.90      -99.90      -99.90      -99.90      -99.90    
  17   -99.90      -99.90      -99.90      -99.90      -99.90      -99.90      -99.90      -99.90      -99.90      -99.90    
       -99.90      -99.90      -99.90      -99.90      -99.90      -99.90      -99.90      -99.90      -99.90      -99.90    
       -99.90      -99.90      -99.90      -99.90      -99.90      -99.90      -99.90      -99.90      -99.90      -99.90    
       -99.90      -99.90      -99.90      -99.90      -99.90      -99.90      -99.90      -99.90      -99.90      -99.90    
  18   -99.90      -99.90      -99.90      -99.90      -99.90      -99.90      -99.90      -99.90      -99.90      -99.90    
       -99.90      -99.90      -99.90      -99.90      -99.90      -99.90      -99.90      -99.90      -99.90      -99.90    
       -99.90      -99.90      -99.90      -99.90      -99.90      -99.90      -99.90      -99.90      -99.90      -99.90    
       -99.90      -99.90      -99.90      -99.90      -99.90      -99.90      -99.90      -99.90      -99.90      -99.90    
  19   -99.90      -99.90      -99.90      -99.90      -99.90      -99.90      -99.90      -99.90      -99.90      -99.90    
       -99.90      -99.90      -99.90      -99.90      -99.90      -99.90      -99.90      -99.90      -99.90      -99.90    
       -99.90      -99.90      -99.90      -99.90      -99.90      -99.90      -99.90      -99.90      -99.90      -99.90    
       -99.90      -99.90      -99.90      -99.90      -99.90      -99.90      -99.90      -99.90      -99.90      -99.90    
  20   -99.90      -99.90      -99.90      -99.90      -99.90      -99.90      -99.90      -99.90      -99.90      -99.90    
       -99.90      -99.90      -99.90      -99.90      -99.90      -99.90      -99.90      -99.90      -99.90      -99.90    
       -99.90      -99.90      -99.90      -99.90      -99.90      -99.90      -99.90      -99.90      -99.90      -99.90    
       -99.90      -99.90      -99.90      -99.90      -99.90      -99.90      -99.90      -99.90      -99.90      -99.90    
  21   -99.90      -99.90      -99.90      -99.90      -99.90      -99.90      -99.90      -99.90      -99.90      -99.90    
       -99.90      -99.90      -99.90      -99.90      -99.90      -99.90      -99.90      -99.90      -99.90      -99.90    
       -99.90      -99.90      -99.90      -99.90      -99.90      -99.90      -99.90      -99.90      -99.90      -99.90    
       -99.90      -99.90      -99.90      -99.90      -99.90      -99.90      -99.90      -99.90      -99.90      -99.90    
  22   -99.90      -99.90      -99.90      -99.90      -99.90      -99.90      -99.90      -99.90      -99.90      -99.90    
       -99.90      -99.90      -99.90      -99.90      -99.90      -99.90      -99.90      -99.90      -99.90      -99.90    
       -99.90      -99.90      -99.90      -99.90      -99.90      -99.90      -99.90      -99.90      -99.90      -99.90    
       -99.90      -99.90      -99.90      -99.90      -99.90      -99.90      -99.90      -99.90      -99.90      -99.90    
  23   -99.90      -99.90      -99.90      -99.90      -99.90      -99.90      -99.90      -99.90      -99.90      -99.90    
       -99.90      -99.90      -99.90      -99.90      -99.90      -99.90      -99.90      -99.90      -99.90      -99.90    
       -99.90      -99.90      -99.90      -99.90      -99.90      -99.90      -99.90      -99.90      -99.90      -99.90    
       -99.90      -99.90      -99.90      -99.90      -99.90      -99.90      -99.90      -99.90      -99.90      -99.90    
  24   -99.90      -99.90      -99.90      -99.90      -99.90      -99.90      -99.90      -99.90      -99.90      -99.90    
       -99.90      -99.90      -99.90      -99.90      -99.90      -99.90      -99.90      -99.90      -99.90      -99.90    
       -99.90      -99.90      -99.90      -99.90      -99.90      -99.90      -99.90      -99.90      -99.90      -99.90    
       -99.90      -99.90      -99.90      -99.90      -99.90      -99.90      -99.90      -99.90      -99.90      -99.90    
  25   -99.90      -99.90      -99.90      -99.90      -99.90      -99.90      -99.90      -99.90      -99.90      -99.90    
       -99.90      -99.90      -99.90      -99.90      -99.90      -99.90      -99.90      -99.90      -99.90      -99.90    
       -99.90      -99.90      -99.90      -99.90      -99.90      -99.90      -99.90      -99.90      -99.90      -99.90    
       -99.90      -99.90      -99.90      -99.90      -99.90      -99.90      -99.90      -99.90      -99.90      -99.90    
  26   -99.90      -99.90      -99.90      -99.90      -99.90      -99.90      -99.90      -99.90      -99.90      -99.90    
       -99.90      -99.90      -99.90      -99.90      -99.90      -99.90      -99.90      -99.90      -99.90      -99.90    
       -99.90      -99.90      -99.90      -99.90      -99.90      -99.90      -99.90      -99.90      -99.90      -99.90    
       -99.90      -99.90      -99.90      -99.90      -99.90      -99.90      -99.90      -99.90      -99.90      -99.90    
  27   -99.90      -99.90      -99.90      -99.90      -99.90      -99.90      -99.90      -99.90      -99.90      -99.90    
       -99.90      -99.90      -99.90      -99.90      -99.90      -99.90      -99.90      -99.90      -99.90      -99.90    
       -99.90      -99.90      -99.90      -99.90      -99.90      -99.90      -99.90      -99.90      -99.90      -99.90    
       -99.90      -99.90      -99.90      -99.90      -99.90      -99.90      -99.90      -99.90      -99.90      -99.90    
  28   -99.90      -99.90      -99.90      -99.90      -99.90      -99.90      -99.90      -99.90      -99.90      -99.90    
       -99.90      -99.90      -99.90      -99.90      -99.90      -99.90      -99.90      -99.90      -99.90      -99.90    
       -99.90      -99.90      -99.90      -99.90      -99.90      -99.90      -99.90      -99.90      -99.90      -99.90    
       -99.90      -99.90      -99.90      -99.90      -99.90      -99.90      -99.90      -99.90      -99.90      -99.90    
  29   -99.90      -99.90      -99.90      -99.90      -99.90      -99.90      -99.90      -99.90      -99.90      -99.90    
       -99.90      -99.90      -99.90      -99.90      -99.90      -99.90      -99.90      -99.90      -99.90      -99.90    
       -99.90      -99.90      -99.90      -99.90      -99.90      -99.90      -99.90      -99.90      -99.90      -99.90    
       -99.90      -99.90      -99.90      -99.90      -99.90      -99.90      -99.90      -99.90      -99.90      -99.90    
  30   -99.90      -99.90      -99.90      -99.90      -99.90      -99.90      -99.90      -99.90      -99.90      -99.90    
       -99.90      -99.90      -99.90      -99.90      -99.90      -99.90      -99.90      -99.90      -99.90      -99.90    
       -99.90      -99.90      -99.90      -99.90      -99.90      -99.90      -99.90      -99.90      -99.90      -99.90    
       -99.90      -99.90      -99.90      -99.90      -99.90      -99.90      -99.90      -99.90      -99.90      -99.90    
  31   -99.90      -99.90      -99.90      -99.90      -99.90      -99.90      -99.90      -99.90      -99.90      -99.90    
       -99.90      -99.90      -99.90      -99.90      -99.90      -99.90      -99.90      -99.90      -99.90      -99.90    
       -99.90      -99.90      -99.90      -99.90      -99.90      -99.90      -99.90      -99.90      -99.90      -99.90    
       -99.90      -99.90      -99.90      -99.90      -99.90      -99.90      -99.90      -99.90      -99.90      -99.90    
  32   -99.90      -99.90      -99.90      -99.90      -99.90      -99.90      -99.90      -99.90      -99.90      -99.90    
       -99.90      -99.90      -99.90      -99.90      -99.90      -99.90      -99.90      -99.90      -99.90      -99.90    
       -99.90      -99.90      -99.90      -99.90      -99.90      -99.90      -99.90      -99.90      -99.90      -99.90    
       -99.90      -99.90      -99.90      -99.90      -99.90      -99.90      -99.90      -99.90      -99.90      -99.90    
  33   -99.90      -99.90      -99.90      -99.90      -99.90      -99.90      -99.90      -99.90      -99.90      -99.90    
       -99.90      -99.90      -99.90      -99.90      -99.90      -99.90      -99.90      -99.90      -99.90      -99.90    
       -99.90      -99.90      -99.90      -99.90      -99.90      -99.90      -99.90      -99.90      -99.90      -99.90    
       -99.90      -99.90      -99.90      -99.90      -99.90      -99.90      -99.90      -99.90      -99.90      -99.90    
  34   -99.90      -99.90      -99.90      -99.90      -99.90      -99.90      -99.90      -99.90      -99.90      -99.90    
       -99.90      -99.90      -99.90      -99.90      -99.90      -99.90      -99.90      -99.90      -99.90      -99.90    
       -99.90      -99.90      -99.90      -99.90      -99.90      -99.90      -99.90      -99.90      -99.90      -99.90    
       -99.90      -99.90      -99.90      -99.90      -99.90      -99.90      -99.90      -99.90      -99.90      -99.90    
  35   -99.90      -99.90      -99.90      -99.90      -99.90      -99.90      -99.90      -99.90      -99.90      -99.90    
       -99.90      -99.90      -99.90      -99.90      -99.90      -99.90      -99.90      -99.90      -99.90      -99.90    
       -99.90      -99.90      -99.90      -99.90      -99.90      -99.90      -99.90      -99.90      -99.90      -99.90    
       -99.90      -99.90      -99.90      -99.90      -99.90      -99.90      -99.90      -99.90      -99.90      -99.90    
  36   -99.90      -99.90      -99.90      -99.90      -99.90      -99.90      -99.90      -99.90      -99.90      -99.90    
       -99.90      -99.90      -99.90      -99.90      -99.90      -99.90      -99.90      -99.90      -99.90      -99.90    
       -99.90      -99.90      -99.90      -99.90      -99.90      -99.90      -99.90      -99.90      -99.90      -99.90    
       -99.90      -99.90      -99.90      -99.90      -99.90      -99.90      -99.90      -99.90      -99.90      -99.90    
  37   -99.90      -99.90      -99.90      -99.90      -99.90      -99.90      -99.90      -99.90      -99.90      -99.90    
       -99.90      -99.90      -99.90      -99.90      -99.90      -99.90      -99.90      -99.90      -99.90      -99.90    
       -99.90      -99.90      -99.90      -99.90      -99.90      -99.90      -99.90      -99.90      -99.90      -99.90    
       -99.90      -99.90      -99.90      -99.90      -99.90      -99.90      -99.90      -99.90      -99.90      -99.90    
  38   -99.90      -99.90      -99.90      -99.90      -99.90      -99.90      -99.90      -99.90      -99.90      -99.90    
       -99.90      -99.90      -99.90      -99.90      -99.90      -99.90      -99.90      -99.90      -99.90      -99.90    
       -99.90      -99.90      -99.90      -99.90      -99.90      -99.90      -99.90      -99.90      -99.90      -99.90    
       -99.90      -99.90      -99.90      -99.90      -99.90      -99.90      -99.90      -99.90      -99.90      -99.90    
  39   -99.90      -99.90      -99.90      -99.90      -99.90      -99.90      -99.90      -99.90      -99.90      -99.90    
       -99.90      -99.90      -99.90      -99.90      -99.90      -99.90      -99.90      -99.90      -99.90      -99.90    
       -99.90      -99.90      -99.90      -99.90      -99.90      -99.90      -99.90      -99.90      -99.90      -99.90    
       -99.90      -99.90      -99.90      -99.90      -99.90      -99.90      -99.90      -99.90      -99.90      -99.90    
  40   -99.90      -99.90      -99.90      -99.90      -99.90      -99.90      -99.90      -99.90      -99.90      -99.90    
       -99.90      -99.90      -99.90      -99.90      -99.90      -99.90      -99.90      -99.90      -99.90      -99.90    
       -99.90      -99.90      -99.90      -99.90      -99.90      -99.90      -99.90      -99.90      -99.90      -99.90    
       -99.90      -99.90      -99.90      -99.90      -99.90      -99.90      -99.90      -99.90      -99.90      -99.90    
1
              HEAD IN LAYER 5 AT END OF TIME STEP 17 IN STRESS PERIOD 3
  ---------------------------------------------------------------------------

            1           2           3           4           5           6           7           8           9          10
           11          12          13          14          15          16          17          18          19          20
           21          22          23          24          25          26          27          28          29          30
           31          32          33          34          35          36          37          38          39          40
 ........................................................................................................................
   1    52.89       51.27       46.55      -99.90      -99.90      -99.90      -99.90      -99.90      -99.90      -99.90    
       -99.90      -99.90      -99.90      -99.90      -99.90      -99.90      -99.90      -99.90      -99.90      -99.90    
       -99.90      -99.90      -99.90      -99.90      -99.90      -99.90      -99.90      -99.90      -99.90      -99.90    
       -99.90      -99.90      -99.90      -99.90      -99.90      -99.90      -99.90      -99.90      -99.90      -99.90    
   2    51.27       49.88       45.51      -99.90      -99.90      -99.90      -99.90      -99.90      -99.90      -99.90    
       -99.90      -99.90      -99.90      -99.90      -99.90      -99.90      -99.90      -99.90      -99.90      -99.90    
       -99.90      -99.90      -99.90      -99.90      -99.90      -99.90      -99.90      -99.90      -99.90      -99.90    
       -99.90      -99.90      -99.90      -99.90      -99.90      -99.90      -99.90      -99.90      -99.90      -99.90    
   3    46.55       45.51      -99.90      -99.90      -99.90      -99.90      -99.90      -99.90      -99.90      -99.90    
       -99.90      -99.90      -99.90      -99.90      -99.90      -99.90      -99.90      -99.90      -99.90      -99.90    
       -99.90      -99.90      -99.90      -99.90      -99.90      -99.90      -99.90      -99.90      -99.90      -99.90    
       -99.90      -99.90      -99.90      -99.90      -99.90      -99.90      -99.90      -99.90      -99.90      -99.90    
   4   -99.90      -99.90      -99.90      -99.90      -99.90      -99.90      -99.90      -99.90      -99.90      -99.90    
       -99.90      -99.90      -99.90      -99.90      -99.90      -99.90      -99.90      -99.90      -99.90      -99.90    
       -99.90      -99.90      -99.90      -99.90      -99.90      -99.90      -99.90      -99.90      -99.90      -99.90    
       -99.90      -99.90      -99.90      -99.90      -99.90      -99.90      -99.90      -99.90      -99.90      -99.90    
   5   -99.90      -99.90      -99.90      -99.90      -99.90      -99.90      -99.90      -99.90      -99.90      -99.90    
       -99.90      -99.90      -99.90      -99.90      -99.90      -99.90      -99.90      -99.90      -99.90      -99.90    
       -99.90      -99.90      -99.90      -99.90      -99.90      -99.90      -99.90      -99.90      -99.90      -99.90    
       -99.90      -99.90      -99.90      -99.90      -99.90      -99.90      -99.90      -99.90      -99.90      -99.90    
   6   -99.90      -99.90      -99.90      -99.90      -99.90      -99.90      -99.90      -99.90      -99.90      -99.90    
       -99.90      -99.90      -99.90      -99.90      -99.90      -99.90      -99.90      -99.90      -99.90      -99.90    
       -99.90      -99.90      -99.90      -99.90      -99.90      -99.90      -99.90      -99.90      -99.90      -99.90    
       -99.90      -99.90      -99.90      -99.90      -99.90      -99.90      -99.90      -99.90      -99.90      -99.90    
   7   -99.90      -99.90      -99.90      -99.90      -99.90      -99.90      -99.90      -99.90      -99.90      -99.90    
       -99.90      -99.90      -99.90      -99.90      -99.90      -99.90      -99.90      -99.90      -99.90      -99.90    
       -99.90      -99.90      -99.90      -99.90      -99.90      -99.90      -99.90      -99.90      -99.90      -99.90    
       -99.90      -99.90      -99.90      -99.90      -99.90      -99.90      -99.90      -99.90      -99.90      -99.90    
   8   -99.90      -99.90      -99.90      -99.90      -99.90      -99.90      -99.90      -99.90      -99.90      -99.90    
       -99.90      -99.90      -99.90      -99.90      -99.90      -99.90      -99.90      -99.90      -99.90      -99.90    
       -99.90      -99.90      -99.90      -99.90      -99.90      -99.90      -99.90      -99.90      -99.90      -99.90    
       -99.90      -99.90      -99.90      -99.90      -99.90      -99.90      -99.90      -99.90      -99.90      -99.90    
   9   -99.90      -99.90      -99.90      -99.90      -99.90      -99.90      -99.90      -99.90      -99.90      -99.90    
       -99.90      -99.90      -99.90      -99.90      -99.90      -99.90      -99.90      -99.90      -99.90      -99.90    
       -99.90      -99.90      -99.90      -99.90      -99.90      -99.90      -99.90      -99.90      -99.90      -99.90    
       -99.90      -99.90      -99.90      -99.90      -99.90      -99.90      -99.90      -99.90      -99.90      -99.90    
  10   -99.90      -99.90      -99.90      -99.90      -99.90      -99.90      -99.90      -99.90      -99.90      -99.90    
       -99.90      -99.90      -99.90      -99.90      -99.90      -99.90      -99.90      -99.90      -99.90      -99.90    
       -99.90      -99.90      -99.90      -99.90      -99.90      -99.90      -99.90      -99.90      -99.90      -99.90    
       -99.90      -99.90      -99.90      -99.90      -99.90      -99.90      -99.90      -99.90      -99.90      -99.90    
  11   -99.90      -99.90      -99.90      -99.90      -99.90      -99.90      -99.90      -99.90      -99.90      -99.90    
       -99.90      -99.90      -99.90      -99.90      -99.90      -99.90      -99.90      -99.90      -99.90      -99.90    
       -99.90      -99.90      -99.90      -99.90      -99.90      -99.90      -99.90      -99.90      -99.90      -99.90    
       -99.90      -99.90      -99.90      -99.90      -99.90      -99.90      -99.90      -99.90      -99.90      -99.90    
  12   -99.90      -99.90      -99.90      -99.90      -99.90      -99.90      -99.90      -99.90      -99.90      -99.90    
       -99.90      -99.90      -99.90      -99.90      -99.90      -99.90      -99.90      -99.90      -99.90      -99.90    
       -99.90      -99.90      -99.90      -99.90      -99.90      -99.90      -99.90      -99.90      -99.90      -99.90    
       -99.90      -99.90      -99.90      -99.90      -99.90      -99.90      -99.90      -99.90      -99.90      -99.90    
  13   -99.90      -99.90      -99.90      -99.90      -99.90      -99.90      -99.90      -99.90      -99.90      -99.90    
       -99.90      -99.90      -99.90      -99.90      -99.90      -99.90      -99.90      -99.90      -99.90      -99.90    
       -99.90      -99.90      -99.90      -99.90      -99.90      -99.90      -99.90      -99.90      -99.90      -99.90    
       -99.90      -99.90      -99.90      -99.90      -99.90      -99.90      -99.90      -99.90      -99.90      -99.90    
  14   -99.90      -99.90      -99.90      -99.90      -99.90      -99.90      -99.90      -99.90      -99.90      -99.90    
       -99.90      -99.90      -99.90      -99.90      -99.90      -99.90      -99.90      -99.90      -99.90      -99.90    
       -99.90      -99.90      -99.90      -99.90      -99.90      -99.90      -99.90      -99.90      -99.90      -99.90    
       -99.90      -99.90      -99.90      -99.90      -99.90      -99.90      -99.90      -99.90      -99.90      -99.90    
  15   -99.90      -99.90      -99.90      -99.90      -99.90      -99.90      -99.90      -99.90      -99.90      -99.90    
       -99.90      -99.90      -99.90      -99.90      -99.90      -99.90      -99.90      -99.90      -99.90      -99.90    
       -99.90      -99.90      -99.90      -99.90      -99.90      -99.90      -99.90      -99.90      -99.90      -99.90    
       -99.90      -99.90      -99.90      -99.90      -99.90      -99.90      -99.90      -99.90      -99.90      -99.90    
  16   -99.90      -99.90      -99.90      -99.90      -99.90      -99.90      -99.90      -99.90      -99.90      -99.90    
       -99.90      -99.90      -99.90      -99.90      -99.90      -99.90      -99.90      -99.90      -99.90      -99.90    
       -99.90      -99.90      -99.90      -99.90      -99.90      -99.90      -99.90      -99.90      -99.90      -99.90    
       -99.90      -99.90      -99.90      -99.90      -99.90      -99.90      -99.90      -99.90      -99.90      -99.90    
  17   -99.90      -99.90      -99.90      -99.90      -99.90      -99.90      -99.90      -99.90      -99.90      -99.90    
       -99.90      -99.90      -99.90      -99.90      -99.90      -99.90      -99.90      -99.90      -99.90      -99.90    
       -99.90      -99.90      -99.90      -99.90      -99.90      -99.90      -99.90      -99.90      -99.90      -99.90    
       -99.90      -99.90      -99.90      -99.90      -99.90      -99.90      -99.90      -99.90      -99.90      -99.90    
  18   -99.90      -99.90      -99.90      -99.90      -99.90      -99.90      -99.90      -99.90      -99.90      -99.90    
       -99.90      -99.90      -99.90      -99.90      -99.90      -99.90      -99.90      -99.90      -99.90      -99.90    
       -99.90      -99.90      -99.90      -99.90      -99.90      -99.90      -99.90      -99.90      -99.90      -99.90    
       -99.90      -99.90      -99.90      -99.90      -99.90      -99.90      -99.90      -99.90      -99.90      -99.90    
  19   -99.90      -99.90      -99.90      -99.90      -99.90      -99.90      -99.90      -99.90      -99.90      -99.90    
       -99.90      -99.90      -99.90      -99.90      -99.90      -99.90      -99.90      -99.90      -99.90      -99.90    
       -99.90      -99.90      -99.90      -99.90      -99.90      -99.90      -99.90      -99.90      -99.90      -99.90    
       -99.90      -99.90      -99.90      -99.90      -99.90      -99.90      -99.90      -99.90      -99.90      -99.90    
  20   -99.90      -99.90      -99.90      -99.90      -99.90      -99.90      -99.90      -99.90      -99.90      -99.90    
       -99.90      -99.90      -99.90      -99.90      -99.90      -99.90      -99.90      -99.90      -99.90      -99.90    
       -99.90      -99.90      -99.90      -99.90      -99.90      -99.90      -99.90      -99.90      -99.90      -99.90    
       -99.90      -99.90      -99.90      -99.90      -99.90      -99.90      -99.90      -99.90      -99.90      -99.90    
  21   -99.90      -99.90      -99.90      -99.90      -99.90      -99.90      -99.90      -99.90      -99.90      -99.90    
       -99.90      -99.90      -99.90      -99.90      -99.90      -99.90      -99.90      -99.90      -99.90      -99.90    
       -99.90      -99.90      -99.90      -99.90      -99.90      -99.90      -99.90      -99.90      -99.90      -99.90    
       -99.90      -99.90      -99.90      -99.90      -99.90      -99.90      -99.90      -99.90      -99.90      -99.90    
  22   -99.90      -99.90      -99.90      -99.90      -99.90      -99.90      -99.90      -99.90      -99.90      -99.90    
       -99.90      -99.90      -99.90      -99.90      -99.90      -99.90      -99.90      -99.90      -99.90      -99.90    
       -99.90      -99.90      -99.90      -99.90      -99.90      -99.90      -99.90      -99.90      -99.90      -99.90    
       -99.90      -99.90      -99.90      -99.90      -99.90      -99.90      -99.90      -99.90      -99.90      -99.90    
  23   -99.90      -99.90      -99.90      -99.90      -99.90      -99.90      -99.90      -99.90      -99.90      -99.90    
       -99.90      -99.90      -99.90      -99.90      -99.90      -99.90      -99.90      -99.90      -99.90      -99.90    
       -99.90      -99.90      -99.90      -99.90      -99.90      -99.90      -99.90      -99.90      -99.90      -99.90    
       -99.90      -99.90      -99.90      -99.90      -99.90      -99.90      -99.90      -99.90      -99.90      -99.90    
  24   -99.90      -99.90      -99.90      -99.90      -99.90      -99.90      -99.90      -99.90      -99.90      -99.90    
       -99.90      -99.90      -99.90      -99.90      -99.90      -99.90      -99.90      -99.90      -99.90      -99.90    
       -99.90      -99.90      -99.90      -99.90      -99.90      -99.90      -99.90      -99.90      -99.90      -99.90    
       -99.90      -99.90      -99.90      -99.90      -99.90      -99.90      -99.90      -99.90      -99.90      -99.90    
  25   -99.90      -99.90      -99.90      -99.90      -99.90      -99.90      -99.90      -99.90      -99.90      -99.90    
       -99.90      -99.90      -99.90      -99.90      -99.90      -99.90      -99.90      -99.90      -99.90      -99.90    
       -99.90      -99.90      -99.90      -99.90      -99.90      -99.90      -99.90      -99.90      -99.90      -99.90    
       -99.90      -99.90      -99.90      -99.90      -99.90      -99.90      -99.90      -99.90      -99.90      -99.90    
  26   -99.90      -99.90      -99.90      -99.90      -99.90      -99.90      -99.90      -99.90      -99.90      -99.90    
       -99.90      -99.90      -99.90      -99.90      -99.90      -99.90      -99.90      -99.90      -99.90      -99.90    
       -99.90      -99.90      -99.90      -99.90      -99.90      -99.90      -99.90      -99.90      -99.90      -99.90    
       -99.90      -99.90      -99.90      -99.90      -99.90      -99.90      -99.90      -99.90      -99.90      -99.90    
  27   -99.90      -99.90      -99.90      -99.90      -99.90      -99.90      -99.90      -99.90      -99.90      -99.90    
       -99.90      -99.90      -99.90      -99.90      -99.90      -99.90      -99.90      -99.90      -99.90      -99.90    
       -99.90      -99.90      -99.90      -99.90      -99.90      -99.90      -99.90      -99.90      -99.90      -99.90    
       -99.90      -99.90      -99.90      -99.90      -99.90      -99.90      -99.90      -99.90      -99.90      -99.90    
  28   -99.90      -99.90      -99.90      -99.90      -99.90      -99.90      -99.90      -99.90      -99.90      -99.90    
       -99.90      -99.90      -99.90      -99.90      -99.90      -99.90      -99.90      -99.90      -99.90      -99.90    
       -99.90      -99.90      -99.90      -99.90      -99.90      -99.90      -99.90      -99.90      -99.90      -99.90    
       -99.90      -99.90      -99.90      -99.90      -99.90      -99.90      -99.90      -99.90      -99.90      -99.90    
  29   -99.90      -99.90      -99.90      -99.90      -99.90      -99.90      -99.90      -99.90      -99.90      -99.90    
       -99.90      -99.90      -99.90      -99.90      -99.90      -99.90      -99.90      -99.90      -99.90      -99.90    
       -99.90      -99.90      -99.90      -99.90      -99.90      -99.90      -99.90      -99.90      -99.90      -99.90    
       -99.90      -99.90      -99.90      -99.90      -99.90      -99.90      -99.90      -99.90      -99.90      -99.90    
  30   -99.90      -99.90      -99.90      -99.90      -99.90      -99.90      -99.90      -99.90      -99.90      -99.90    
       -99.90      -99.90      -99.90      -99.90      -99.90      -99.90      -99.90      -99.90      -99.90      -99.90    
       -99.90      -99.90      -99.90      -99.90      -99.90      -99.90      -99.90      -99.90      -99.90      -99.90    
       -99.90      -99.90      -99.90      -99.90      -99.90      -99.90      -99.90      -99.90      -99.90      -99.90    
  31   -99.90      -99.90      -99.90      -99.90      -99.90      -99.90      -99.90      -99.90      -99.90      -99.90    
       -99.90      -99.90      -99.90      -99.90      -99.90      -99.90      -99.90      -99.90      -99.90      -99.90    
       -99.90      -99.90      -99.90      -99.90      -99.90      -99.90      -99.90      -99.90      -99.90      -99.90    
       -99.90      -99.90      -99.90      -99.90      -99.90      -99.90      -99.90      -99.90      -99.90      -99.90    
  32   -99.90      -99.90      -99.90      -99.90      -99.90      -99.90      -99.90      -99.90      -99.90      -99.90    
       -99.90      -99.90      -99.90      -99.90      -99.90      -99.90      -99.90      -99.90      -99.90      -99.90    
       -99.90      -99.90      -99.90      -99.90      -99.90      -99.90      -99.90      -99.90      -99.90      -99.90    
       -99.90      -99.90      -99.90      -99.90      -99.90      -99.90      -99.90      -99.90      -99.90      -99.90    
  33   -99.90      -99.90      -99.90      -99.90      -99.90      -99.90      -99.90      -99.90      -99.90      -99.90    
       -99.90      -99.90      -99.90      -99.90      -99.90      -99.90      -99.90      -99.90      -99.90      -99.90    
       -99.90      -99.90      -99.90      -99.90      -99.90      -99.90      -99.90      -99.90      -99.90      -99.90    
       -99.90      -99.90      -99.90      -99.90      -99.90      -99.90      -99.90      -99.90      -99.90      -99.90    
  34   -99.90      -99.90      -99.90      -99.90      -99.90      -99.90      -99.90      -99.90      -99.90      -99.90    
       -99.90      -99.90      -99.90      -99.90      -99.90      -99.90      -99.90      -99.90      -99.90      -99.90    
       -99.90      -99.90      -99.90      -99.90      -99.90      -99.90      -99.90      -99.90      -99.90      -99.90    
       -99.90      -99.90      -99.90      -99.90      -99.90      -99.90      -99.90      -99.90      -99.90      -99.90    
  35   -99.90      -99.90      -99.90      -99.90      -99.90      -99.90      -99.90      -99.90      -99.90      -99.90    
       -99.90      -99.90      -99.90      -99.90      -99.90      -99.90      -99.90      -99.90      -99.90      -99.90    
       -99.90      -99.90      -99.90      -99.90      -99.90      -99.90      -99.90      -99.90      -99.90      -99.90    
       -99.90      -99.90      -99.90      -99.90      -99.90      -99.90      -99.90      -99.90      -99.90      -99.90    
  36   -99.90      -99.90      -99.90      -99.90      -99.90      -99.90      -99.90      -99.90      -99.90      -99.90    
       -99.90      -99.90      -99.90      -99.90      -99.90      -99.90      -99.90      -99.90      -99.90      -99.90    
       -99.90      -99.90      -99.90      -99.90      -99.90      -99.90      -99.90      -99.90      -99.90      -99.90    
       -99.90      -99.90      -99.90      -99.90      -99.90      -99.90      -99.90      -99.90      -99.90      -99.90    
  37   -99.90      -99.90      -99.90      -99.90      -99.90      -99.90      -99.90      -99.90      -99.90      -99.90    
       -99.90      -99.90      -99.90      -99.90      -99.90      -99.90      -99.90      -99.90      -99.90      -99.90    
       -99.90      -99.90      -99.90      -99.90      -99.90      -99.90      -99.90      -99.90      -99.90      -99.90    
       -99.90      -99.90      -99.90      -99.90      -99.90      -99.90      -99.90      -99.90      -99.90      -99.90    
  38   -99.90      -99.90      -99.90      -99.90      -99.90      -99.90      -99.90      -99.90      -99.90      -99.90    
       -99.90      -99.90      -99.90      -99.90      -99.90      -99.90      -99.90      -99.90      -99.90      -99.90    
       -99.90      -99.90      -99.90      -99.90      -99.90      -99.90      -99.90      -99.90      -99.90      -99.90    
       -99.90      -99.90      -99.90      -99.90      -99.90      -99.90      -99.90      -99.90      -99.90      -99.90    
  39   -99.90      -99.90      -99.90      -99.90      -99.90      -99.90      -99.90      -99.90      -99.90      -99.90    
       -99.90      -99.90      -99.90      -99.90      -99.90      -99.90      -99.90      -99.90      -99.90      -99.90    
       -99.90      -99.90      -99.90      -99.90      -99.90      -99.90      -99.90      -99.90      -99.90      -99.90    
       -99.90      -99.90      -99.90      -99.90      -99.90      -99.90      -99.90      -99.90      -99.90      -99.90    
  40   -99.90      -99.90      -99.90      -99.90      -99.90      -99.90      -99.90      -99.90      -99.90      -99.90    
       -99.90      -99.90      -99.90      -99.90      -99.90      -99.90      -99.90      -99.90      -99.90      -99.90    
       -99.90      -99.90      -99.90      -99.90      -99.90      -99.90      -99.90      -99.90      -99.90      -99.90    
       -99.90      -99.90      -99.90      -99.90      -99.90      -99.90      -99.90      -99.90      -99.90      -99.90    
1
              HEAD IN LAYER 6 AT END OF TIME STEP 17 IN STRESS PERIOD 3
  ---------------------------------------------------------------------------

            1           2           3           4           5           6           7           8           9          10
           11          12          13          14          15          16          17          18          19          20
           21          22          23          24          25          26          27          28          29          30
           31          32          33          34          35          36          37          38          39          40
 ........................................................................................................................
   1    52.08       50.48       46.36       43.34       41.03      -99.90      -99.90      -99.90      -99.90      -99.90    
       -99.90      -99.90      -99.90      -99.90      -99.90      -99.90      -99.90      -99.90      -99.90      -99.90    
       -99.90      -99.90      -99.90      -99.90      -99.90      -99.90      -99.90      -99.90      -99.90      -99.90    
       -99.90      -99.90      -99.90      -99.90      -99.90      -99.90      -99.90      -99.90      -99.90      -99.90    
   2    50.48       49.09       45.35       42.67       40.58      -99.90      -99.90      -99.90      -99.90      -99.90    
       -99.90      -99.90      -99.90      -99.90      -99.90      -99.90      -99.90      -99.90      -99.90      -99.90    
       -99.90      -99.90      -99.90      -99.90      -99.90      -99.90      -99.90      -99.90      -99.90      -99.90    
       -99.90      -99.90      -99.90      -99.90      -99.90      -99.90      -99.90      -99.90      -99.90      -99.90    
   3    46.36       45.35       43.36       41.48      -99.90      -99.90      -99.90      -99.90      -99.90      -99.90    
       -99.90      -99.90      -99.90      -99.90      -99.90      -99.90      -99.90      -99.90      -99.90      -99.90    
       -99.90      -99.90      -99.90      -99.90      -99.90      -99.90      -99.90      -99.90      -99.90      -99.90    
       -99.90      -99.90      -99.90      -99.90      -99.90      -99.90      -99.90      -99.90      -99.90      -99.90    
   4    43.34       42.67       41.48       40.13      -99.90      -99.90      -99.90      -99.90      -99.90      -99.90    
       -99.90      -99.90      -99.90      -99.90      -99.90      -99.90      -99.90      -99.90      -99.90      -99.90    
       -99.90      -99.90      -99.90      -99.90      -99.90      -99.90      -99.90      -99.90      -99.90      -99.90    
       -99.90      -99.90      -99.90      -99.90      -99.90      -99.90      -99.90      -99.90      -99.90      -99.90    
   5    41.03       40.58      -99.90      -99.90      -99.90      -99.90      -99.90      -99.90      -99.90      -99.90    
       -99.90      -99.90      -99.90      -99.90      -99.90      -99.90      -99.90      -99.90      -99.90      -99.90    
       -99.90      -99.90      -99.90      -99.90      -99.90      -99.90      -99.90      -99.90      -99.90      -99.90    
       -99.90      -99.90      -99.90      -99.90      -99.90      -99.90      -99.90      -99.90      -99.90      -99.90    
   6   -99.90      -99.90      -99.90      -99.90      -99.90      -99.90      -99.90      -99.90      -99.90      -99.90    
       -99.90      -99.90      -99.90      -99.90      -99.90      -99.90      -99.90      -99.90      -99.90      -99.90    
       -99.90      -99.90      -99.90      -99.90      -99.90      -99.90      -99.90      -99.90      -99.90      -99.90    
       -99.90      -99.90      -99.90      -99.90      -99.90      -99.90      -99.90      -99.90      -99.90      -99.90    
   7   -99.90      -99.90      -99.90      -99.90      -99.90      -99.90      -99.90      -99.90      -99.90      -99.90    
       -99.90      -99.90      -99.90      -99.90      -99.90      -99.90      -99.90      -99.90      -99.90      -99.90    
       -99.90      -99.90      -99.90      -99.90      -99.90      -99.90      -99.90      -99.90      -99.90      -99.90    
       -99.90      -99.90      -99.90      -99.90      -99.90      -99.90      -99.90      -99.90      -99.90      -99.90    
   8   -99.90      -99.90      -99.90      -99.90      -99.90      -99.90      -99.90      -99.90      -99.90      -99.90    
       -99.90      -99.90      -99.90      -99.90      -99.90      -99.90      -99.90      -99.90      -99.90      -99.90    
       -99.90      -99.90      -99.90      -99.90      -99.90      -99.90      -99.90      -99.90      -99.90      -99.90    
       -99.90      -99.90      -99.90      -99.90      -99.90      -99.90      -99.90      -99.90      -99.90      -99.90    
   9   -99.90      -99.90      -99.90      -99.90      -99.90      -99.90      -99.90      -99.90      -99.90      -99.90    
       -99.90      -99.90      -99.90      -99.90      -99.90      -99.90      -99.90      -99.90      -99.90      -99.90    
       -99.90      -99.90      -99.90      -99.90      -99.90      -99.90      -99.90      -99.90      -99.90      -99.90    
       -99.90      -99.90      -99.90      -99.90      -99.90      -99.90      -99.90      -99.90      -99.90      -99.90    
  10   -99.90      -99.90      -99.90      -99.90      -99.90      -99.90      -99.90      -99.90      -99.90      -99.90    
       -99.90      -99.90      -99.90      -99.90      -99.90      -99.90      -99.90      -99.90      -99.90      -99.90    
       -99.90      -99.90      -99.90      -99.90      -99.90      -99.90      -99.90      -99.90      -99.90      -99.90    
       -99.90      -99.90      -99.90      -99.90      -99.90      -99.90      -99.90      -99.90      -99.90      -99.90    
  11   -99.90      -99.90      -99.90      -99.90      -99.90      -99.90      -99.90      -99.90      -99.90      -99.90    
       -99.90      -99.90      -99.90      -99.90      -99.90      -99.90      -99.90      -99.90      -99.90      -99.90    
       -99.90      -99.90      -99.90      -99.90      -99.90      -99.90      -99.90      -99.90      -99.90      -99.90    
       -99.90      -99.90      -99.90      -99.90      -99.90      -99.90      -99.90      -99.90      -99.90      -99.90    
  12   -99.90      -99.90      -99.90      -99.90      -99.90      -99.90      -99.90      -99.90      -99.90      -99.90    
       -99.90      -99.90      -99.90      -99.90      -99.90      -99.90      -99.90      -99.90      -99.90      -99.90    
       -99.90      -99.90      -99.90      -99.90      -99.90      -99.90      -99.90      -99.90      -99.90      -99.90    
       -99.90      -99.90      -99.90      -99.90      -99.90      -99.90      -99.90      -99.90      -99.90      -99.90    
  13   -99.90      -99.90      -99.90      -99.90      -99.90      -99.90      -99.90      -99.90      -99.90      -99.90    
       -99.90      -99.90      -99.90      -99.90      -99.90      -99.90      -99.90      -99.90      -99.90      -99.90    
       -99.90      -99.90      -99.90      -99.90      -99.90      -99.90      -99.90      -99.90      -99.90      -99.90    
       -99.90      -99.90      -99.90      -99.90      -99.90      -99.90      -99.90      -99.90      -99.90      -99.90    
  14   -99.90      -99.90      -99.90      -99.90      -99.90      -99.90      -99.90      -99.90      -99.90      -99.90    
       -99.90      -99.90      -99.90      -99.90      -99.90      -99.90      -99.90      -99.90      -99.90      -99.90    
       -99.90      -99.90      -99.90      -99.90      -99.90      -99.90      -99.90      -99.90      -99.90      -99.90    
       -99.90      -99.90      -99.90      -99.90      -99.90      -99.90      -99.90      -99.90      -99.90      -99.90    
  15   -99.90      -99.90      -99.90      -99.90      -99.90      -99.90      -99.90      -99.90      -99.90      -99.90    
       -99.90      -99.90      -99.90      -99.90      -99.90      -99.90      -99.90      -99.90      -99.90      -99.90    
       -99.90      -99.90      -99.90      -99.90      -99.90      -99.90      -99.90      -99.90      -99.90      -99.90    
       -99.90      -99.90      -99.90      -99.90      -99.90      -99.90      -99.90      -99.90      -99.90      -99.90    
  16   -99.90      -99.90      -99.90      -99.90      -99.90      -99.90      -99.90      -99.90      -99.90      -99.90    
       -99.90      -99.90      -99.90      -99.90      -99.90      -99.90      -99.90      -99.90      -99.90      -99.90    
       -99.90      -99.90      -99.90      -99.90      -99.90      -99.90      -99.90      -99.90      -99.90      -99.90    
       -99.90      -99.90      -99.90      -99.90      -99.90      -99.90      -99.90      -99.90      -99.90      -99.90    
  17   -99.90      -99.90      -99.90      -99.90      -99.90      -99.90      -99.90      -99.90      -99.90      -99.90    
       -99.90      -99.90      -99.90      -99.90      -99.90      -99.90      -99.90      -99.90      -99.90      -99.90    
       -99.90      -99.90      -99.90      -99.90      -99.90      -99.90      -99.90      -99.90      -99.90      -99.90    
       -99.90      -99.90      -99.90      -99.90      -99.90      -99.90      -99.90      -99.90      -99.90      -99.90    
  18   -99.90      -99.90      -99.90      -99.90      -99.90      -99.90      -99.90      -99.90      -99.90      -99.90    
       -99.90      -99.90      -99.90      -99.90      -99.90      -99.90      -99.90      -99.90      -99.90      -99.90    
       -99.90      -99.90      -99.90      -99.90      -99.90      -99.90      -99.90      -99.90      -99.90      -99.90    
       -99.90      -99.90      -99.90      -99.90      -99.90      -99.90      -99.90      -99.90      -99.90      -99.90    
  19   -99.90      -99.90      -99.90      -99.90      -99.90      -99.90      -99.90      -99.90      -99.90      -99.90    
       -99.90      -99.90      -99.90      -99.90      -99.90      -99.90      -99.90      -99.90      -99.90      -99.90    
       -99.90      -99.90      -99.90      -99.90      -99.90      -99.90      -99.90      -99.90      -99.90      -99.90    
       -99.90      -99.90      -99.90      -99.90      -99.90      -99.90      -99.90      -99.90      -99.90      -99.90    
  20   -99.90      -99.90      -99.90      -99.90      -99.90      -99.90      -99.90      -99.90      -99.90      -99.90    
       -99.90      -99.90      -99.90      -99.90      -99.90      -99.90      -99.90      -99.90      -99.90      -99.90    
       -99.90      -99.90      -99.90      -99.90      -99.90      -99.90      -99.90      -99.90      -99.90      -99.90    
       -99.90      -99.90      -99.90      -99.90      -99.90      -99.90      -99.90      -99.90      -99.90      -99.90    
  21   -99.90      -99.90      -99.90      -99.90      -99.90      -99.90      -99.90      -99.90      -99.90      -99.90    
       -99.90      -99.90      -99.90      -99.90      -99.90      -99.90      -99.90      -99.90      -99.90      -99.90    
       -99.90      -99.90      -99.90      -99.90      -99.90      -99.90      -99.90      -99.90      -99.90      -99.90    
       -99.90      -99.90      -99.90      -99.90      -99.90      -99.90      -99.90      -99.90      -99.90      -99.90    
  22   -99.90      -99.90      -99.90      -99.90      -99.90      -99.90      -99.90      -99.90      -99.90      -99.90    
       -99.90      -99.90      -99.90      -99.90      -99.90      -99.90      -99.90      -99.90      -99.90      -99.90    
       -99.90      -99.90      -99.90      -99.90      -99.90      -99.90      -99.90      -99.90      -99.90      -99.90    
       -99.90      -99.90      -99.90      -99.90      -99.90      -99.90      -99.90      -99.90      -99.90      -99.90    
  23   -99.90      -99.90      -99.90      -99.90      -99.90      -99.90      -99.90      -99.90      -99.90      -99.90    
       -99.90      -99.90      -99.90      -99.90      -99.90      -99.90      -99.90      -99.90      -99.90      -99.90    
       -99.90      -99.90      -99.90      -99.90      -99.90      -99.90      -99.90      -99.90      -99.90      -99.90    
       -99.90      -99.90      -99.90      -99.90      -99.90      -99.90      -99.90      -99.90      -99.90      -99.90    
  24   -99.90      -99.90      -99.90      -99.90      -99.90      -99.90      -99.90      -99.90      -99.90      -99.90    
       -99.90      -99.90      -99.90      -99.90      -99.90      -99.90      -99.90      -99.90      -99.90      -99.90    
       -99.90      -99.90      -99.90      -99.90      -99.90      -99.90      -99.90      -99.90      -99.90      -99.90    
       -99.90      -99.90      -99.90      -99.90      -99.90      -99.90      -99.90      -99.90      -99.90      -99.90    
  25   -99.90      -99.90      -99.90      -99.90      -99.90      -99.90      -99.90      -99.90      -99.90      -99.90    
       -99.90      -99.90      -99.90      -99.90      -99.90      -99.90      -99.90      -99.90      -99.90      -99.90    
       -99.90      -99.90      -99.90      -99.90      -99.90      -99.90      -99.90      -99.90      -99.90      -99.90    
       -99.90      -99.90      -99.90      -99.90      -99.90      -99.90      -99.90      -99.90      -99.90      -99.90    
  26   -99.90      -99.90      -99.90      -99.90      -99.90      -99.90      -99.90      -99.90      -99.90      -99.90    
       -99.90      -99.90      -99.90      -99.90      -99.90      -99.90      -99.90      -99.90      -99.90      -99.90    
       -99.90      -99.90      -99.90      -99.90      -99.90      -99.90      -99.90      -99.90      -99.90      -99.90    
       -99.90      -99.90      -99.90      -99.90      -99.90      -99.90      -99.90      -99.90      -99.90      -99.90    
  27   -99.90      -99.90      -99.90      -99.90      -99.90      -99.90      -99.90      -99.90      -99.90      -99.90    
       -99.90      -99.90      -99.90      -99.90      -99.90      -99.90      -99.90      -99.90      -99.90      -99.90    
       -99.90      -99.90      -99.90      -99.90      -99.90      -99.90      -99.90      -99.90      -99.90      -99.90    
       -99.90      -99.90      -99.90      -99.90      -99.90      -99.90      -99.90      -99.90      -99.90      -99.90    
  28   -99.90      -99.90      -99.90      -99.90      -99.90      -99.90      -99.90      -99.90      -99.90      -99.90    
       -99.90      -99.90      -99.90      -99.90      -99.90      -99.90      -99.90      -99.90      -99.90      -99.90    
       -99.90      -99.90      -99.90      -99.90      -99.90      -99.90      -99.90      -99.90      -99.90      -99.90    
       -99.90      -99.90      -99.90      -99.90      -99.90      -99.90      -99.90      -99.90      -99.90      -99.90    
  29   -99.90      -99.90      -99.90      -99.90      -99.90      -99.90      -99.90      -99.90      -99.90      -99.90    
       -99.90      -99.90      -99.90      -99.90      -99.90      -99.90      -99.90      -99.90      -99.90      -99.90    
       -99.90      -99.90      -99.90      -99.90      -99.90      -99.90      -99.90      -99.90      -99.90      -99.90    
       -99.90      -99.90      -99.90      -99.90      -99.90      -99.90      -99.90      -99.90      -99.90      -99.90    
  30   -99.90      -99.90      -99.90      -99.90      -99.90      -99.90      -99.90      -99.90      -99.90      -99.90    
       -99.90      -99.90      -99.90      -99.90      -99.90      -99.90      -99.90      -99.90      -99.90      -99.90    
       -99.90      -99.90      -99.90      -99.90      -99.90      -99.90      -99.90      -99.90      -99.90      -99.90    
       -99.90      -99.90      -99.90      -99.90      -99.90      -99.90      -99.90      -99.90      -99.90      -99.90    
  31   -99.90      -99.90      -99.90      -99.90      -99.90      -99.90      -99.90      -99.90      -99.90      -99.90    
       -99.90      -99.90      -99.90      -99.90      -99.90      -99.90      -99.90      -99.90      -99.90      -99.90    
       -99.90      -99.90      -99.90      -99.90      -99.90      -99.90      -99.90      -99.90      -99.90      -99.90    
       -99.90      -99.90      -99.90      -99.90      -99.90      -99.90      -99.90      -99.90      -99.90      -99.90    
  32   -99.90      -99.90      -99.90      -99.90      -99.90      -99.90      -99.90      -99.90      -99.90      -99.90    
       -99.90      -99.90      -99.90      -99.90      -99.90      -99.90      -99.90      -99.90      -99.90      -99.90    
       -99.90      -99.90      -99.90      -99.90      -99.90      -99.90      -99.90      -99.90      -99.90      -99.90    
       -99.90      -99.90      -99.90      -99.90      -99.90      -99.90      -99.90      -99.90      -99.90      -99.90    
  33   -99.90      -99.90      -99.90      -99.90      -99.90      -99.90      -99.90      -99.90      -99.90      -99.90    
       -99.90      -99.90      -99.90      -99.90      -99.90      -99.90      -99.90      -99.90      -99.90      -99.90    
       -99.90      -99.90      -99.90      -99.90      -99.90      -99.90      -99.90      -99.90      -99.90      -99.90    
       -99.90      -99.90      -99.90      -99.90      -99.90      -99.90      -99.90      -99.90      -99.90      -99.90    
  34   -99.90      -99.90      -99.90      -99.90      -99.90      -99.90      -99.90      -99.90      -99.90      -99.90    
       -99.90      -99.90      -99.90      -99.90      -99.90      -99.90      -99.90      -99.90      -99.90      -99.90    
       -99.90      -99.90      -99.90      -99.90      -99.90      -99.90      -99.90      -99.90      -99.90      -99.90    
       -99.90      -99.90      -99.90      -99.90      -99.90      -99.90      -99.90      -99.90      -99.90      -99.90    
  35   -99.90      -99.90      -99.90      -99.90      -99.90      -99.90      -99.90      -99.90      -99.90      -99.90    
       -99.90      -99.90      -99.90      -99.90      -99.90      -99.90      -99.90      -99.90      -99.90      -99.90    
       -99.90      -99.90      -99.90      -99.90      -99.90      -99.90      -99.90      -99.90      -99.90      -99.90    
       -99.90      -99.90      -99.90      -99.90      -99.90      -99.90      -99.90      -99.90      -99.90      -99.90    
  36   -99.90      -99.90      -99.90      -99.90      -99.90      -99.90      -99.90      -99.90      -99.90      -99.90    
       -99.90      -99.90      -99.90      -99.90      -99.90      -99.90      -99.90      -99.90      -99.90      -99.90    
       -99.90      -99.90      -99.90      -99.90      -99.90      -99.90      -99.90      -99.90      -99.90      -99.90    
       -99.90      -99.90      -99.90      -99.90      -99.90      -99.90      -99.90      -99.90      -99.90      -99.90    
  37   -99.90      -99.90      -99.90      -99.90      -99.90      -99.90      -99.90      -99.90      -99.90      -99.90    
       -99.90      -99.90      -99.90      -99.90      -99.90      -99.90      -99.90      -99.90      -99.90      -99.90    
       -99.90      -99.90      -99.90      -99.90      -99.90      -99.90      -99.90      -99.90      -99.90      -99.90    
       -99.90      -99.90      -99.90      -99.90      -99.90      -99.90      -99.90      -99.90      -99.90      -99.90    
  38   -99.90      -99.90      -99.90      -99.90      -99.90      -99.90      -99.90      -99.90      -99.90      -99.90    
       -99.90      -99.90      -99.90      -99.90      -99.90      -99.90      -99.90      -99.90      -99.90      -99.90    
       -99.90      -99.90      -99.90      -99.90      -99.90      -99.90      -99.90      -99.90      -99.90      -99.90    
       -99.90      -99.90      -99.90      -99.90      -99.90      -99.90      -99.90      -99.90      -99.90      -99.90    
  39   -99.90      -99.90      -99.90      -99.90      -99.90      -99.90      -99.90      -99.90      -99.90      -99.90    
       -99.90      -99.90      -99.90      -99.90      -99.90      -99.90      -99.90      -99.90      -99.90      -99.90    
       -99.90      -99.90      -99.90      -99.90      -99.90      -99.90      -99.90      -99.90      -99.90      -99.90    
       -99.90      -99.90      -99.90      -99.90      -99.90      -99.90      -99.90      -99.90      -99.90      -99.90    
  40   -99.90      -99.90      -99.90      -99.90      -99.90      -99.90      -99.90      -99.90      -99.90      -99.90    
       -99.90      -99.90      -99.90      -99.90      -99.90      -99.90      -99.90      -99.90      -99.90      -99.90    
       -99.90      -99.90      -99.90      -99.90      -99.90      -99.90      -99.90      -99.90      -99.90      -99.90    
       -99.90      -99.90      -99.90      -99.90      -99.90      -99.90      -99.90      -99.90      -99.90      -99.90    
1
              HEAD IN LAYER 7 AT END OF TIME STEP 17 IN STRESS PERIOD 3
  ---------------------------------------------------------------------------

            1           2           3           4           5           6           7           8           9          10
           11          12          13          14          15          16          17          18          19          20
           21          22          23          24          25          26          27          28          29          30
           31          32          33          34          35          36          37          38          39          40
 ........................................................................................................................
   1    51.36       49.81       46.18       43.28       41.00       39.12       37.51       36.10      -99.90      -99.90    
       -99.90      -99.90      -99.90      -99.90      -99.90      -99.90      -99.90      -99.90      -99.90      -99.90    
       -99.90      -99.90      -99.90      -99.90      -99.90      -99.90      -99.90      -99.90      -99.90      -99.90    
       -99.90      -99.90      -99.90      -99.90      -99.90      -99.90      -99.90      -99.90      -99.90      -99.90    
   2    49.81       48.46       45.20       42.63       40.56       38.80       37.27       35.92      -99.90      -99.90    
       -99.90      -99.90      -99.90      -99.90      -99.90      -99.90      -99.90      -99.90      -99.90      -99.90    
       -99.90      -99.90      -99.90      -99.90      -99.90      -99.90      -99.90      -99.90      -99.90      -99.90    
       -99.90      -99.90      -99.90      -99.90      -99.90      -99.90      -99.90      -99.90      -99.90      -99.90    
   3    46.18       45.20       43.31       41.45       39.76       38.22       36.83       35.58      -99.90      -99.90    
       -99.90      -99.90      -99.90      -99.90      -99.90      -99.90      -99.90      -99.90      -99.90      -99.90    
       -99.90      -99.90      -99.90      -99.90      -99.90      -99.90      -99.90      -99.90      -99.90      -99.90    
       -99.90      -99.90      -99.90      -99.90      -99.90      -99.90      -99.90      -99.90      -99.90      -99.90    
   4    43.28       42.63       41.45       40.12       38.77       37.47       36.24       35.11      -99.90      -99.90    
       -99.90      -99.90      -99.90      -99.90      -99.90      -99.90      -99.90      -99.90      -99.90      -99.90    
       -99.90      -99.90      -99.90      -99.90      -99.90      -99.90      -99.90      -99.90      -99.90      -99.90    
       -99.90      -99.90      -99.90      -99.90      -99.90      -99.90      -99.90      -99.90      -99.90      -99.90    
   5    41.00       40.56       39.76       38.77       37.69       36.61       35.55      -99.90      -99.90      -99.90    
       -99.90      -99.90      -99.90      -99.90      -99.90      -99.90      -99.90      -99.90      -99.90      -99.90    
       -99.90      -99.90      -99.90      -99.90      -99.90      -99.90      -99.90      -99.90      -99.90      -99.90    
       -99.90      -99.90      -99.90      -99.90      -99.90      -99.90      -99.90      -99.90      -99.90      -99.90    
   6    39.12       38.80       38.22       37.47       36.61       35.71      -99.90      -99.90      -99.90      -99.90    
       -99.90      -99.90      -99.90      -99.90      -99.90      -99.90      -99.90      -99.90      -99.90      -99.90    
       -99.90      -99.90      -99.90      -99.90      -99.90      -99.90      -99.90      -99.90      -99.90      -99.90    
       -99.90      -99.90      -99.90      -99.90      -99.90      -99.90      -99.90      -99.90      -99.90      -99.90    
   7    37.51       37.27       36.83       36.24       35.55      -99.90      -99.90      -99.90      -99.90      -99.90    
       -99.90      -99.90      -99.90      -99.90      -99.90      -99.90      -99.90      -99.90      -99.90      -99.90    
       -99.90      -99.90      -99.90      -99.90      -99.90      -99.90      -99.90      -99.90      -99.90      -99.90    
       -99.90      -99.90      -99.90      -99.90      -99.90      -99.90      -99.90      -99.90      -99.90      -99.90    
   8    36.10       35.92       35.58       35.11      -99.90      -99.90      -99.90      -99.90      -99.90      -99.90    
       -99.90      -99.90      -99.90      -99.90      -99.90      -99.90      -99.90      -99.90      -99.90      -99.90    
       -99.90      -99.90      -99.90      -99.90      -99.90      -99.90      -99.90      -99.90      -99.90      -99.90    
       -99.90      -99.90      -99.90      -99.90      -99.90      -99.90      -99.90      -99.90      -99.90      -99.90    
   9   -99.90      -99.90      -99.90      -99.90      -99.90      -99.90      -99.90      -99.90      -99.90      -99.90    
       -99.90      -99.90      -99.90      -99.90      -99.90      -99.90      -99.90      -99.90      -99.90      -99.90    
       -99.90      -99.90      -99.90      -99.90      -99.90      -99.90      -99.90      -99.90      -99.90      -99.90    
       -99.90      -99.90      -99.90      -99.90      -99.90      -99.90      -99.90      -99.90      -99.90      -99.90    
  10   -99.90      -99.90      -99.90      -99.90      -99.90      -99.90      -99.90      -99.90      -99.90      -99.90    
       -99.90      -99.90      -99.90      -99.90      -99.90      -99.90      -99.90      -99.90      -99.90      -99.90    
       -99.90      -99.90      -99.90      -99.90      -99.90      -99.90      -99.90      -99.90      -99.90      -99.90    
       -99.90      -99.90      -99.90      -99.90      -99.90      -99.90      -99.90      -99.90      -99.90      -99.90    
  11   -99.90      -99.90      -99.90      -99.90      -99.90      -99.90      -99.90      -99.90      -99.90      -99.90    
       -99.90      -99.90      -99.90      -99.90      -99.90      -99.90      -99.90      -99.90      -99.90      -99.90    
       -99.90      -99.90      -99.90      -99.90      -99.90      -99.90      -99.90      -99.90      -99.90      -99.90    
       -99.90      -99.90      -99.90      -99.90      -99.90      -99.90      -99.90      -99.90      -99.90      -99.90    
  12   -99.90      -99.90      -99.90      -99.90      -99.90      -99.90      -99.90      -99.90      -99.90      -99.90    
       -99.90      -99.90      -99.90      -99.90      -99.90      -99.90      -99.90      -99.90      -99.90      -99.90    
       -99.90      -99.90      -99.90      -99.90      -99.90      -99.90      -99.90      -99.90      -99.90      -99.90    
       -99.90      -99.90      -99.90      -99.90      -99.90      -99.90      -99.90      -99.90      -99.90      -99.90    
  13   -99.90      -99.90      -99.90      -99.90      -99.90      -99.90      -99.90      -99.90      -99.90      -99.90    
       -99.90      -99.90      -99.90      -99.90      -99.90      -99.90      -99.90      -99.90      -99.90      -99.90    
       -99.90      -99.90      -99.90      -99.90      -99.90      -99.90      -99.90      -99.90      -99.90      -99.90    
       -99.90      -99.90      -99.90      -99.90      -99.90      -99.90      -99.90      -99.90      -99.90      -99.90    
  14   -99.90      -99.90      -99.90      -99.90      -99.90      -99.90      -99.90      -99.90      -99.90      -99.90    
       -99.90      -99.90      -99.90      -99.90      -99.90      -99.90      -99.90      -99.90      -99.90      -99.90    
       -99.90      -99.90      -99.90      -99.90      -99.90      -99.90      -99.90      -99.90      -99.90      -99.90    
       -99.90      -99.90      -99.90      -99.90      -99.90      -99.90      -99.90      -99.90      -99.90      -99.90    
  15   -99.90      -99.90      -99.90      -99.90      -99.90      -99.90      -99.90      -99.90      -99.90      -99.90    
       -99.90      -99.90      -99.90      -99.90      -99.90      -99.90      -99.90      -99.90      -99.90      -99.90    
       -99.90      -99.90      -99.90      -99.90      -99.90      -99.90      -99.90      -99.90      -99.90      -99.90    
       -99.90      -99.90      -99.90      -99.90      -99.90      -99.90      -99.90      -99.90      -99.90      -99.90    
  16   -99.90      -99.90      -99.90      -99.90      -99.90      -99.90      -99.90      -99.90      -99.90      -99.90    
       -99.90      -99.90      -99.90      -99.90      -99.90      -99.90      -99.90      -99.90      -99.90      -99.90    
       -99.90      -99.90      -99.90      -99.90      -99.90      -99.90      -99.90      -99.90      -99.90      -99.90    
       -99.90      -99.90      -99.90      -99.90      -99.90      -99.90      -99.90      -99.90      -99.90      -99.90    
  17   -99.90      -99.90      -99.90      -99.90      -99.90      -99.90      -99.90      -99.90      -99.90      -99.90    
       -99.90      -99.90      -99.90      -99.90      -99.90      -99.90      -99.90      -99.90      -99.90      -99.90    
       -99.90      -99.90      -99.90      -99.90      -99.90      -99.90      -99.90      -99.90      -99.90      -99.90    
       -99.90      -99.90      -99.90      -99.90      -99.90      -99.90      -99.90      -99.90      -99.90      -99.90    
  18   -99.90      -99.90      -99.90      -99.90      -99.90      -99.90      -99.90      -99.90      -99.90      -99.90    
       -99.90      -99.90      -99.90      -99.90      -99.90      -99.90      -99.90      -99.90      -99.90      -99.90    
       -99.90      -99.90      -99.90      -99.90      -99.90      -99.90      -99.90      -99.90      -99.90      -99.90    
       -99.90      -99.90      -99.90      -99.90      -99.90      -99.90      -99.90      -99.90      -99.90      -99.90    
  19   -99.90      -99.90      -99.90      -99.90      -99.90      -99.90      -99.90      -99.90      -99.90      -99.90    
       -99.90      -99.90      -99.90      -99.90      -99.90      -99.90      -99.90      -99.90      -99.90      -99.90    
       -99.90      -99.90      -99.90      -99.90      -99.90      -99.90      -99.90      -99.90      -99.90      -99.90    
       -99.90      -99.90      -99.90      -99.90      -99.90      -99.90      -99.90      -99.90      -99.90      -99.90    
  20   -99.90      -99.90      -99.90      -99.90      -99.90      -99.90      -99.90      -99.90      -99.90      -99.90    
       -99.90      -99.90      -99.90      -99.90      -99.90      -99.90      -99.90      -99.90      -99.90      -99.90    
       -99.90      -99.90      -99.90      -99.90      -99.90      -99.90      -99.90      -99.90      -99.90      -99.90    
       -99.90      -99.90      -99.90      -99.90      -99.90      -99.90      -99.90      -99.90      -99.90      -99.90    
  21   -99.90      -99.90      -99.90      -99.90      -99.90      -99.90      -99.90      -99.90      -99.90      -99.90    
       -99.90      -99.90      -99.90      -99.90      -99.90      -99.90      -99.90      -99.90      -99.90      -99.90    
       -99.90      -99.90      -99.90      -99.90      -99.90      -99.90      -99.90      -99.90      -99.90      -99.90    
       -99.90      -99.90      -99.90      -99.90      -99.90      -99.90      -99.90      -99.90      -99.90      -99.90    
  22   -99.90      -99.90      -99.90      -99.90      -99.90      -99.90      -99.90      -99.90      -99.90      -99.90    
       -99.90      -99.90      -99.90      -99.90      -99.90      -99.90      -99.90      -99.90      -99.90      -99.90    
       -99.90      -99.90      -99.90      -99.90      -99.90      -99.90      -99.90      -99.90      -99.90      -99.90    
       -99.90      -99.90      -99.90      -99.90      -99.90      -99.90      -99.90      -99.90      -99.90      -99.90    
  23   -99.90      -99.90      -99.90      -99.90      -99.90      -99.90      -99.90      -99.90      -99.90      -99.90    
       -99.90      -99.90      -99.90      -99.90      -99.90      -99.90      -99.90      -99.90      -99.90      -99.90    
       -99.90      -99.90      -99.90      -99.90      -99.90      -99.90      -99.90      -99.90      -99.90      -99.90    
       -99.90      -99.90      -99.90      -99.90      -99.90      -99.90      -99.90      -99.90      -99.90      -99.90    
  24   -99.90      -99.90      -99.90      -99.90      -99.90      -99.90      -99.90      -99.90      -99.90      -99.90    
       -99.90      -99.90      -99.90      -99.90      -99.90      -99.90      -99.90      -99.90      -99.90      -99.90    
       -99.90      -99.90      -99.90      -99.90      -99.90      -99.90      -99.90      -99.90      -99.90      -99.90    
       -99.90      -99.90      -99.90      -99.90      -99.90      -99.90      -99.90      -99.90      -99.90      -99.90    
  25   -99.90      -99.90      -99.90      -99.90      -99.90      -99.90      -99.90      -99.90      -99.90      -99.90    
       -99.90      -99.90      -99.90      -99.90      -99.90      -99.90      -99.90      -99.90      -99.90      -99.90    
       -99.90      -99.90      -99.90      -99.90      -99.90      -99.90      -99.90      -99.90      -99.90      -99.90    
       -99.90      -99.90      -99.90      -99.90      -99.90      -99.90      -99.90      -99.90      -99.90      -99.90    
  26   -99.90      -99.90      -99.90      -99.90      -99.90      -99.90      -99.90      -99.90      -99.90      -99.90    
       -99.90      -99.90      -99.90      -99.90      -99.90      -99.90      -99.90      -99.90      -99.90      -99.90    
       -99.90      -99.90      -99.90      -99.90      -99.90      -99.90      -99.90      -99.90      -99.90      -99.90    
       -99.90      -99.90      -99.90      -99.90      -99.90      -99.90      -99.90      -99.90      -99.90      -99.90    
  27   -99.90      -99.90      -99.90      -99.90      -99.90      -99.90      -99.90      -99.90      -99.90      -99.90    
       -99.90      -99.90      -99.90      -99.90      -99.90      -99.90      -99.90      -99.90      -99.90      -99.90    
       -99.90      -99.90      -99.90      -99.90      -99.90      -99.90      -99.90      -99.90      -99.90      -99.90    
       -99.90      -99.90      -99.90      -99.90      -99.90      -99.90      -99.90      -99.90      -99.90      -99.90    
  28   -99.90      -99.90      -99.90      -99.90      -99.90      -99.90      -99.90      -99.90      -99.90      -99.90    
       -99.90      -99.90      -99.90      -99.90      -99.90      -99.90      -99.90      -99.90      -99.90      -99.90    
       -99.90      -99.90      -99.90      -99.90      -99.90      -99.90      -99.90      -99.90      -99.90      -99.90    
       -99.90      -99.90      -99.90      -99.90      -99.90      -99.90      -99.90      -99.90      -99.90      -99.90    
  29   -99.90      -99.90      -99.90      -99.90      -99.90      -99.90      -99.90      -99.90      -99.90      -99.90    
       -99.90      -99.90      -99.90      -99.90      -99.90      -99.90      -99.90      -99.90      -99.90      -99.90    
       -99.90      -99.90      -99.90      -99.90      -99.90      -99.90      -99.90      -99.90      -99.90      -99.90    
       -99.90      -99.90      -99.90      -99.90      -99.90      -99.90      -99.90      -99.90      -99.90      -99.90    
  30   -99.90      -99.90      -99.90      -99.90      -99.90      -99.90      -99.90      -99.90      -99.90      -99.90    
       -99.90      -99.90      -99.90      -99.90      -99.90      -99.90      -99.90      -99.90      -99.90      -99.90    
       -99.90      -99.90      -99.90      -99.90      -99.90      -99.90      -99.90      -99.90      -99.90      -99.90    
       -99.90      -99.90      -99.90      -99.90      -99.90      -99.90      -99.90      -99.90      -99.90      -99.90    
  31   -99.90      -99.90      -99.90      -99.90      -99.90      -99.90      -99.90      -99.90      -99.90      -99.90    
       -99.90      -99.90      -99.90      -99.90      -99.90      -99.90      -99.90      -99.90      -99.90      -99.90    
       -99.90      -99.90      -99.90      -99.90      -99.90      -99.90      -99.90      -99.90      -99.90      -99.90    
       -99.90      -99.90      -99.90      -99.90      -99.90      -99.90      -99.90      -99.90      -99.90      -99.90    
  32   -99.90      -99.90      -99.90      -99.90      -99.90      -99.90      -99.90      -99.90      -99.90      -99.90    
       -99.90      -99.90      -99.90      -99.90      -99.90      -99.90      -99.90      -99.90      -99.90      -99.90    
       -99.90      -99.90      -99.90      -99.90      -99.90      -99.90      -99.90      -99.90      -99.90      -99.90    
       -99.90      -99.90      -99.90      -99.90      -99.90      -99.90      -99.90      -99.90      -99.90      -99.90    
  33   -99.90      -99.90      -99.90      -99.90      -99.90      -99.90      -99.90      -99.90      -99.90      -99.90    
       -99.90      -99.90      -99.90      -99.90      -99.90      -99.90      -99.90      -99.90      -99.90      -99.90    
       -99.90      -99.90      -99.90      -99.90      -99.90      -99.90      -99.90      -99.90      -99.90      -99.90    
       -99.90      -99.90      -99.90      -99.90      -99.90      -99.90      -99.90      -99.90      -99.90      -99.90    
  34   -99.90      -99.90      -99.90      -99.90      -99.90      -99.90      -99.90      -99.90      -99.90      -99.90    
       -99.90      -99.90      -99.90      -99.90      -99.90      -99.90      -99.90      -99.90      -99.90      -99.90    
       -99.90      -99.90      -99.90      -99.90      -99.90      -99.90      -99.90      -99.90      -99.90      -99.90    
       -99.90      -99.90      -99.90      -99.90      -99.90      -99.90      -99.90      -99.90      -99.90      -99.90    
  35   -99.90      -99.90      -99.90      -99.90      -99.90      -99.90      -99.90      -99.90      -99.90      -99.90    
       -99.90      -99.90      -99.90      -99.90      -99.90      -99.90      -99.90      -99.90      -99.90      -99.90    
       -99.90      -99.90      -99.90      -99.90      -99.90      -99.90      -99.90      -99.90      -99.90      -99.90    
       -99.90      -99.90      -99.90      -99.90      -99.90      -99.90      -99.90      -99.90      -99.90      -99.90    
  36   -99.90      -99.90      -99.90      -99.90      -99.90      -99.90      -99.90      -99.90      -99.90      -99.90    
       -99.90      -99.90      -99.90      -99.90      -99.90      -99.90      -99.90      -99.90      -99.90      -99.90    
       -99.90      -99.90      -99.90      -99.90      -99.90      -99.90      -99.90      -99.90      -99.90      -99.90    
       -99.90      -99.90      -99.90      -99.90      -99.90      -99.90      -99.90      -99.90      -99.90      -99.90    
  37   -99.90      -99.90      -99.90      -99.90      -99.90      -99.90      -99.90      -99.90      -99.90      -99.90    
       -99.90      -99.90      -99.90      -99.90      -99.90      -99.90      -99.90      -99.90      -99.90      -99.90    
       -99.90      -99.90      -99.90      -99.90      -99.90      -99.90      -99.90      -99.90      -99.90      -99.90    
       -99.90      -99.90      -99.90      -99.90      -99.90      -99.90      -99.90      -99.90      -99.90      -99.90    
  38   -99.90      -99.90      -99.90      -99.90      -99.90      -99.90      -99.90      -99.90      -99.90      -99.90    
       -99.90      -99.90      -99.90      -99.90      -99.90      -99.90      -99.90      -99.90      -99.90      -99.90    
       -99.90      -99.90      -99.90      -99.90      -99.90      -99.90      -99.90      -99.90      -99.90      -99.90    
       -99.90      -99.90      -99.90      -99.90      -99.90      -99.90      -99.90      -99.90      -99.90      -99.90    
  39   -99.90      -99.90      -99.90      -99.90      -99.90      -99.90      -99.90      -99.90      -99.90      -99.90    
       -99.90      -99.90      -99.90      -99.90      -99.90      -99.90      -99.90      -99.90      -99.90      -99.90    
       -99.90      -99.90      -99.90      -99.90      -99.90      -99.90      -99.90      -99.90      -99.90      -99.90    
       -99.90      -99.90      -99.90      -99.90      -99.90      -99.90      -99.90      -99.90      -99.90      -99.90    
  40   -99.90      -99.90      -99.90      -99.90      -99.90      -99.90      -99.90      -99.90      -99.90      -99.90    
       -99.90      -99.90      -99.90      -99.90      -99.90      -99.90      -99.90      -99.90      -99.90      -99.90    
       -99.90      -99.90      -99.90      -99.90      -99.90      -99.90      -99.90      -99.90      -99.90      -99.90    
       -99.90      -99.90      -99.90      -99.90      -99.90      -99.90      -99.90      -99.90      -99.90      -99.90    
1
              HEAD IN LAYER 8 AT END OF TIME STEP 17 IN STRESS PERIOD 3
  ---------------------------------------------------------------------------

            1           2           3           4           5           6           7           8           9          10
           11          12          13          14          15          16          17          18          19          20
           21          22          23          24          25          26          27          28          29          30
           31          32          33          34          35          36          37          38          39          40
 ........................................................................................................................
   1    50.75       49.25       46.00       43.22       40.98       39.11       37.50       36.09       34.85       33.73    
        32.74       31.84       31.04       30.31      -99.90      -99.90      -99.90      -99.90      -99.90      -99.90    
       -99.90      -99.90      -99.90      -99.90      -99.90      -99.90      -99.90      -99.90      -99.90      -99.90    
       -99.90      -99.90      -99.90      -99.90      -99.90      -99.90      -99.90      -99.90      -99.90      -99.90    
   2    49.25       47.94       45.05       42.58       40.54       38.79       37.27       35.91       34.71       33.62    
        32.65       31.77       30.97       30.26      -99.90      -99.90      -99.90      -99.90      -99.90      -99.90    
       -99.90      -99.90      -99.90      -99.90      -99.90      -99.90      -99.90      -99.90      -99.90      -99.90    
       -99.90      -99.90      -99.90      -99.90      -99.90      -99.90      -99.90      -99.90      -99.90      -99.90    
   3    46.00       45.05       43.25       41.43       39.75       38.22       36.83       35.57       34.44       33.40    
        32.47       31.62       30.85       30.16      -99.90      -99.90      -99.90      -99.90      -99.90      -99.90    
       -99.90      -99.90      -99.90      -99.90      -99.90      -99.90      -99.90      -99.90      -99.90      -99.90    
       -99.90      -99.90      -99.90      -99.90      -99.90      -99.90      -99.90      -99.90      -99.90      -99.90    
   4    43.22       42.58       41.43       40.10       38.76       37.46       36.24       35.11       34.06       33.10    
        32.22       31.41       30.68       30.02      -99.90      -99.90      -99.90      -99.90      -99.90      -99.90    
       -99.90      -99.90      -99.90      -99.90      -99.90      -99.90      -99.90      -99.90      -99.90      -99.90    
       -99.90      -99.90      -99.90      -99.90      -99.90      -99.90      -99.90      -99.90      -99.90      -99.90    
   5    40.98       40.54       39.75       38.76       37.69       36.61       35.55       34.55       33.60       32.72    
        31.90       31.15       30.45      -99.90      -99.90      -99.90      -99.90      -99.90      -99.90      -99.90    
       -99.90      -99.90      -99.90      -99.90      -99.90      -99.90      -99.90      -99.90      -99.90      -99.90    
       -99.90      -99.90      -99.90      -99.90      -99.90      -99.90      -99.90      -99.90      -99.90      -99.90    
   6    39.11       38.79       38.22       37.46       36.61       35.71       34.81       33.93       33.08       32.28    
        31.54       30.84       30.20      -99.90      -99.90      -99.90      -99.90      -99.90      -99.90      -99.90    
       -99.90      -99.90      -99.90      -99.90      -99.90      -99.90      -99.90      -99.90      -99.90      -99.90    
       -99.90      -99.90      -99.90      -99.90      -99.90      -99.90      -99.90      -99.90      -99.90      -99.90    
   7    37.50       37.27       36.83       36.24       35.55       34.81       34.04       33.28       32.53       31.82    
        31.14       30.50      -99.90      -99.90      -99.90      -99.90      -99.90      -99.90      -99.90      -99.90    
       -99.90      -99.90      -99.90      -99.90      -99.90      -99.90      -99.90      -99.90      -99.90      -99.90    
       -99.90      -99.90      -99.90      -99.90      -99.90      -99.90      -99.90      -99.90      -99.90      -99.90    
   8    36.09       35.91       35.57       35.11       34.55       33.93       33.28       32.62       31.96       31.33    
        30.72       30.14      -99.90      -99.90      -99.90      -99.90      -99.90      -99.90      -99.90      -99.90    
       -99.90      -99.90      -99.90      -99.90      -99.90      -99.90      -99.90      -99.90      -99.90      -99.90    
       -99.90      -99.90      -99.90      -99.90      -99.90      -99.90      -99.90      -99.90      -99.90      -99.90    
   9    34.85       34.71       34.44       34.06       33.60       33.08       32.53       31.96       31.39       30.83    
        30.29      -99.90      -99.90      -99.90      -99.90      -99.90      -99.90      -99.90      -99.90      -99.90    
       -99.90      -99.90      -99.90      -99.90      -99.90      -99.90      -99.90      -99.90      -99.90      -99.90    
       -99.90      -99.90      -99.90      -99.90      -99.90      -99.90      -99.90      -99.90      -99.90      -99.90    
  10    33.73       33.62       33.40       33.10       32.72       32.28       31.82       31.33       30.83       30.34    
       -99.90      -99.90      -99.90      -99.90      -99.90      -99.90      -99.90      -99.90      -99.90      -99.90    
       -99.90      -99.90      -99.90      -99.90      -99.90      -99.90      -99.90      -99.90      -99.90      -99.90    
       -99.90      -99.90      -99.90      -99.90      -99.90      -99.90      -99.90      -99.90      -99.90      -99.90    
  11    32.74       32.65       32.47       32.22       31.90       31.54       31.14       30.72       30.29      -99.90    
       -99.90      -99.90      -99.90      -99.90      -99.90      -99.90      -99.90      -99.90      -99.90      -99.90    
       -99.90      -99.90      -99.90      -99.90      -99.90      -99.90      -99.90      -99.90      -99.90      -99.90    
       -99.90      -99.90      -99.90      -99.90      -99.90      -99.90      -99.90      -99.90      -99.90      -99.90    
  12    31.84       31.77       31.62       31.41       31.15       30.84       30.50       30.14      -99.90      -99.90    
       -99.90      -99.90      -99.90      -99.90      -99.90      -99.90      -99.90      -99.90      -99.90      -99.90    
       -99.90      -99.90      -99.90      -99.90      -99.90      -99.90      -99.90      -99.90      -99.90      -99.90    
       -99.90      -99.90      -99.90      -99.90      -99.90      -99.90      -99.90      -99.90      -99.90      -99.90    
  13    31.04       30.97       30.85       30.68       30.45       30.20      -99.90      -99.90      -99.90      -99.90    
       -99.90      -99.90      -99.90      -99.90      -99.90      -99.90      -99.90      -99.90      -99.90      -99.90    
       -99.90      -99.90      -99.90      -99.90      -99.90      -99.90      -99.90      -99.90      -99.90      -99.90    
       -99.90      -99.90      -99.90      -99.90      -99.90      -99.90      -99.90      -99.90      -99.90      -99.90    
  14    30.31       30.26       30.16       30.02      -99.90      -99.90      -99.90      -99.90      -99.90      -99.90    
       -99.90      -99.90      -99.90      -99.90      -99.90      -99.90      -99.90      -99.90      -99.90      -99.90    
       -99.90      -99.90      -99.90      -99.90      -99.90      -99.90      -99.90      -99.90      -99.90      -99.90    
       -99.90      -99.90      -99.90      -99.90      -99.90      -99.90      -99.90      -99.90      -99.90      -99.90    
  15   -99.90      -99.90      -99.90      -99.90      -99.90      -99.90      -99.90      -99.90      -99.90      -99.90    
       -99.90      -99.90      -99.90      -99.90      -99.90      -99.90      -99.90      -99.90      -99.90      -99.90    
       -99.90      -99.90      -99.90      -99.90      -99.90      -99.90      -99.90      -99.90      -99.90      -99.90    
       -99.90      -99.90      -99.90      -99.90      -99.90      -99.90      -99.90      -99.90      -99.90      -99.90    
  16   -99.90      -99.90      -99.90      -99.90      -99.90      -99.90      -99.90      -99.90      -99.90      -99.90    
       -99.90      -99.90      -99.90      -99.90      -99.90      -99.90      -99.90      -99.90      -99.90      -99.90    
       -99.90      -99.90      -99.90      -99.90      -99.90      -99.90      -99.90      -99.90      -99.90      -99.90    
       -99.90      -99.90      -99.90      -99.90      -99.90      -99.90      -99.90      -99.90      -99.90      -99.90    
  17   -99.90      -99.90      -99.90      -99.90      -99.90      -99.90      -99.90      -99.90      -99.90      -99.90    
       -99.90      -99.90      -99.90      -99.90      -99.90      -99.90      -99.90      -99.90      -99.90      -99.90    
       -99.90      -99.90      -99.90      -99.90      -99.90      -99.90      -99.90      -99.90      -99.90      -99.90    
       -99.90      -99.90      -99.90      -99.90      -99.90      -99.90      -99.90      -99.90      -99.90      -99.90    
  18   -99.90      -99.90      -99.90      -99.90      -99.90      -99.90      -99.90      -99.90      -99.90      -99.90    
       -99.90      -99.90      -99.90      -99.90      -99.90      -99.90      -99.90      -99.90      -99.90      -99.90    
       -99.90      -99.90      -99.90      -99.90      -99.90      -99.90      -99.90      -99.90      -99.90      -99.90    
       -99.90      -99.90      -99.90      -99.90      -99.90      -99.90      -99.90      -99.90      -99.90      -99.90    
  19   -99.90      -99.90      -99.90      -99.90      -99.90      -99.90      -99.90      -99.90      -99.90      -99.90    
       -99.90      -99.90      -99.90      -99.90      -99.90      -99.90      -99.90      -99.90      -99.90      -99.90    
       -99.90      -99.90      -99.90      -99.90      -99.90      -99.90      -99.90      -99.90      -99.90      -99.90    
       -99.90      -99.90      -99.90      -99.90      -99.90      -99.90      -99.90      -99.90      -99.90      -99.90    
  20   -99.90      -99.90      -99.90      -99.90      -99.90      -99.90      -99.90      -99.90      -99.90      -99.90    
       -99.90      -99.90      -99.90      -99.90      -99.90      -99.90      -99.90      -99.90      -99.90      -99.90    
       -99.90      -99.90      -99.90      -99.90      -99.90      -99.90      -99.90      -99.90      -99.90      -99.90    
       -99.90      -99.90      -99.90      -99.90      -99.90      -99.90      -99.90      -99.90      -99.90      -99.90    
  21   -99.90      -99.90      -99.90      -99.90      -99.90      -99.90      -99.90      -99.90      -99.90      -99.90    
       -99.90      -99.90      -99.90      -99.90      -99.90      -99.90      -99.90      -99.90      -99.90      -99.90    
       -99.90      -99.90      -99.90      -99.90      -99.90      -99.90      -99.90      -99.90      -99.90      -99.90    
       -99.90      -99.90      -99.90      -99.90      -99.90      -99.90      -99.90      -99.90      -99.90      -99.90    
  22   -99.90      -99.90      -99.90      -99.90      -99.90      -99.90      -99.90      -99.90      -99.90      -99.90    
       -99.90      -99.90      -99.90      -99.90      -99.90      -99.90      -99.90      -99.90      -99.90      -99.90    
       -99.90      -99.90      -99.90      -99.90      -99.90      -99.90      -99.90      -99.90      -99.90      -99.90    
       -99.90      -99.90      -99.90      -99.90      -99.90      -99.90      -99.90      -99.90      -99.90      -99.90    
  23   -99.90      -99.90      -99.90      -99.90      -99.90      -99.90      -99.90      -99.90      -99.90      -99.90    
       -99.90      -99.90      -99.90      -99.90      -99.90      -99.90      -99.90      -99.90      -99.90      -99.90    
       -99.90      -99.90      -99.90      -99.90      -99.90      -99.90      -99.90      -99.90      -99.90      -99.90    
       -99.90      -99.90      -99.90      -99.90      -99.90      -99.90      -99.90      -99.90      -99.90      -99.90    
  24   -99.90      -99.90      -99.90      -99.90      -99.90      -99.90      -99.90      -99.90      -99.90      -99.90    
       -99.90      -99.90      -99.90      -99.90      -99.90      -99.90      -99.90      -99.90      -99.90      -99.90    
       -99.90      -99.90      -99.90      -99.90      -99.90      -99.90      -99.90      -99.90      -99.90      -99.90    
       -99.90      -99.90      -99.90      -99.90      -99.90      -99.90      -99.90      -99.90      -99.90      -99.90    
  25   -99.90      -99.90      -99.90      -99.90      -99.90      -99.90      -99.90      -99.90      -99.90      -99.90    
       -99.90      -99.90      -99.90      -99.90      -99.90      -99.90      -99.90      -99.90      -99.90      -99.90    
       -99.90      -99.90      -99.90      -99.90      -99.90      -99.90      -99.90      -99.90      -99.90      -99.90    
       -99.90      -99.90      -99.90      -99.90      -99.90      -99.90      -99.90      -99.90      -99.90      -99.90    
  26   -99.90      -99.90      -99.90      -99.90      -99.90      -99.90      -99.90      -99.90      -99.90      -99.90    
       -99.90      -99.90      -99.90      -99.90      -99.90      -99.90      -99.90      -99.90      -99.90      -99.90    
       -99.90      -99.90      -99.90      -99.90      -99.90      -99.90      -99.90      -99.90      -99.90      -99.90    
       -99.90      -99.90      -99.90      -99.90      -99.90      -99.90      -99.90      -99.90      -99.90      -99.90    
  27   -99.90      -99.90      -99.90      -99.90      -99.90      -99.90      -99.90      -99.90      -99.90      -99.90    
       -99.90      -99.90      -99.90      -99.90      -99.90      -99.90      -99.90      -99.90      -99.90      -99.90    
       -99.90      -99.90      -99.90      -99.90      -99.90      -99.90      -99.90      -99.90      -99.90      -99.90    
       -99.90      -99.90      -99.90      -99.90      -99.90      -99.90      -99.90      -99.90      -99.90      -99.90    
  28   -99.90      -99.90      -99.90      -99.90      -99.90      -99.90      -99.90      -99.90      -99.90      -99.90    
       -99.90      -99.90      -99.90      -99.90      -99.90      -99.90      -99.90      -99.90      -99.90      -99.90    
       -99.90      -99.90      -99.90      -99.90      -99.90      -99.90      -99.90      -99.90      -99.90      -99.90    
       -99.90      -99.90      -99.90      -99.90      -99.90      -99.90      -99.90      -99.90      -99.90      -99.90    
  29   -99.90      -99.90      -99.90      -99.90      -99.90      -99.90      -99.90      -99.90      -99.90      -99.90    
       -99.90      -99.90      -99.90      -99.90      -99.90      -99.90      -99.90      -99.90      -99.90      -99.90    
       -99.90      -99.90      -99.90      -99.90      -99.90      -99.90      -99.90      -99.90      -99.90      -99.90    
       -99.90      -99.90      -99.90      -99.90      -99.90      -99.90      -99.90      -99.90      -99.90      -99.90    
  30   -99.90      -99.90      -99.90      -99.90      -99.90      -99.90      -99.90      -99.90      -99.90      -99.90    
       -99.90      -99.90      -99.90      -99.90      -99.90      -99.90      -99.90      -99.90      -99.90      -99.90    
       -99.90      -99.90      -99.90      -99.90      -99.90      -99.90      -99.90      -99.90      -99.90      -99.90    
       -99.90      -99.90      -99.90      -99.90      -99.90      -99.90      -99.90      -99.90      -99.90      -99.90    
  31   -99.90      -99.90      -99.90      -99.90      -99.90      -99.90      -99.90      -99.90      -99.90      -99.90    
       -99.90      -99.90      -99.90      -99.90      -99.90      -99.90      -99.90      -99.90      -99.90      -99.90    
       -99.90      -99.90      -99.90      -99.90      -99.90      -99.90      -99.90      -99.90      -99.90      -99.90    
       -99.90      -99.90      -99.90      -99.90      -99.90      -99.90      -99.90      -99.90      -99.90      -99.90    
  32   -99.90      -99.90      -99.90      -99.90      -99.90      -99.90      -99.90      -99.90      -99.90      -99.90    
       -99.90      -99.90      -99.90      -99.90      -99.90      -99.90      -99.90      -99.90      -99.90      -99.90    
       -99.90      -99.90      -99.90      -99.90      -99.90      -99.90      -99.90      -99.90      -99.90      -99.90    
       -99.90      -99.90      -99.90      -99.90      -99.90      -99.90      -99.90      -99.90      -99.90      -99.90    
  33   -99.90      -99.90      -99.90      -99.90      -99.90      -99.90      -99.90      -99.90      -99.90      -99.90    
       -99.90      -99.90      -99.90      -99.90      -99.90      -99.90      -99.90      -99.90      -99.90      -99.90    
       -99.90      -99.90      -99.90      -99.90      -99.90      -99.90      -99.90      -99.90      -99.90      -99.90    
       -99.90      -99.90      -99.90      -99.90      -99.90      -99.90      -99.90      -99.90      -99.90      -99.90    
  34   -99.90      -99.90      -99.90      -99.90      -99.90      -99.90      -99.90      -99.90      -99.90      -99.90    
       -99.90      -99.90      -99.90      -99.90      -99.90      -99.90      -99.90      -99.90      -99.90      -99.90    
       -99.90      -99.90      -99.90      -99.90      -99.90      -99.90      -99.90      -99.90      -99.90      -99.90    
       -99.90      -99.90      -99.90      -99.90      -99.90      -99.90      -99.90      -99.90      -99.90      -99.90    
  35   -99.90      -99.90      -99.90      -99.90      -99.90      -99.90      -99.90      -99.90      -99.90      -99.90    
       -99.90      -99.90      -99.90      -99.90      -99.90      -99.90      -99.90      -99.90      -99.90      -99.90    
       -99.90      -99.90      -99.90      -99.90      -99.90      -99.90      -99.90      -99.90      -99.90      -99.90    
       -99.90      -99.90      -99.90      -99.90      -99.90      -99.90      -99.90      -99.90      -99.90      -99.90    
  36   -99.90      -99.90      -99.90      -99.90      -99.90      -99.90      -99.90      -99.90      -99.90      -99.90    
       -99.90      -99.90      -99.90      -99.90      -99.90      -99.90      -99.90      -99.90      -99.90      -99.90    
       -99.90      -99.90      -99.90      -99.90      -99.90      -99.90      -99.90      -99.90      -99.90      -99.90    
       -99.90      -99.90      -99.90      -99.90      -99.90      -99.90      -99.90      -99.90      -99.90      -99.90    
  37   -99.90      -99.90      -99.90      -99.90      -99.90      -99.90      -99.90      -99.90      -99.90      -99.90    
       -99.90      -99.90      -99.90      -99.90      -99.90      -99.90      -99.90      -99.90      -99.90      -99.90    
       -99.90      -99.90      -99.90      -99.90      -99.90      -99.90      -99.90      -99.90      -99.90      -99.90    
       -99.90      -99.90      -99.90      -99.90      -99.90      -99.90      -99.90      -99.90      -99.90      -99.90    
  38   -99.90      -99.90      -99.90      -99.90      -99.90      -99.90      -99.90      -99.90      -99.90      -99.90    
       -99.90      -99.90      -99.90      -99.90      -99.90      -99.90      -99.90      -99.90      -99.90      -99.90    
       -99.90      -99.90      -99.90      -99.90      -99.90      -99.90      -99.90      -99.90      -99.90      -99.90    
       -99.90      -99.90      -99.90      -99.90      -99.90      -99.90      -99.90      -99.90      -99.90      -99.90    
  39   -99.90      -99.90      -99.90      -99.90      -99.90      -99.90      -99.90      -99.90      -99.90      -99.90    
       -99.90      -99.90      -99.90      -99.90      -99.90      -99.90      -99.90      -99.90      -99.90      -99.90    
       -99.90      -99.90      -99.90      -99.90      -99.90      -99.90      -99.90      -99.90      -99.90      -99.90    
       -99.90      -99.90      -99.90      -99.90      -99.90      -99.90      -99.90      -99.90      -99.90      -99.90    
  40   -99.90      -99.90      -99.90      -99.90      -99.90      -99.90      -99.90      -99.90      -99.90      -99.90    
       -99.90      -99.90      -99.90      -99.90      -99.90      -99.90      -99.90      -99.90      -99.90      -99.90    
       -99.90      -99.90      -99.90      -99.90      -99.90      -99.90      -99.90      -99.90      -99.90      -99.90    
       -99.90      -99.90      -99.90      -99.90      -99.90      -99.90      -99.90      -99.90      -99.90      -99.90    
1
              HEAD IN LAYER 9 AT END OF TIME STEP 17 IN STRESS PERIOD 3
  ---------------------------------------------------------------------------

            1           2           3           4           5           6           7           8           9          10
           11          12          13          14          15          16          17          18          19          20
           21          22          23          24          25          26          27          28          29          30
           31          32          33          34          35          36          37          38          39          40
 ........................................................................................................................
   1    50.24       48.80       45.84       43.17       40.96       39.10       37.49       36.09       34.85       33.73    
        32.74       31.84       31.04       30.31       29.66       29.08       28.56       28.09       27.68       27.31    
        26.99       26.70       26.46       26.24       26.05       25.89       25.75       25.63       25.53       25.44    
        25.36       25.30       25.24       25.19       25.15       25.12       25.08       25.05       25.03      -99.90    
   2    48.80       47.53       44.92       42.54       40.52       38.78       37.26       35.91       34.70       33.62    
        32.65       31.77       30.98       30.26       29.62       29.04       28.53       28.06       27.65       27.29    
        26.97       26.69       26.44       26.23       26.04       25.88       25.74       25.62       25.52       25.43    
        25.36       25.30       25.24       25.19       25.15       25.12       25.08       25.05       25.03      -99.90    
   3    45.84       44.92       43.20       41.41       39.73       38.21       36.82       35.57       34.44       33.41    
        32.47       31.62       30.86       30.16       29.53       28.97       28.47       28.01       27.61       27.26    
        26.94       26.67       26.42       26.21       26.03       25.87       25.73       25.62       25.52       25.43    
        25.36       25.29       25.24       25.19       25.15       25.11       25.08       25.05       25.03      -99.90    
   4    43.17       42.54       41.41       40.09       38.75       37.46       36.24       35.10       34.06       33.10    
        32.22       31.41       30.68       30.01       29.41       28.87       28.38       27.94       27.55       27.21    
        26.90       26.63       26.39       26.19       26.01       25.85       25.72       25.60       25.51       25.42    
        25.35       25.29       25.23       25.19       25.15       25.11       25.08       25.05       25.03      -99.90    
   5    40.96       40.52       39.73       38.75       37.68       36.60       35.55       34.55       33.60       32.72    
        31.90       31.15       30.46       29.83       29.25       28.74       28.27       27.85       27.47       27.14    
        26.84       26.58       26.36       26.16       25.98       25.83       25.70       25.59       25.49       25.41    
        25.34       25.28       25.23       25.18       25.14       25.11       25.08       25.05       25.03      -99.90    
   6    39.10       38.78       38.21       37.46       36.60       35.71       34.81       33.93       33.08       32.29    
        31.54       30.84       30.20       29.61       29.07       28.58       28.13       27.74       27.38       27.06    
        26.78       26.53       26.31       26.12       25.95       25.80       25.68       25.57       25.48       25.40    
        25.33       25.27       25.22       25.18       25.14       25.11       25.08       25.05       25.02      -99.90    
   7    37.49       37.26       36.82       36.24       35.55       34.81       34.04       33.28       32.53       31.82    
        31.14       30.50       29.91       29.36       28.86       28.40       27.98       27.61       27.27       26.97    
        26.70       26.46       26.25       26.07       25.91       25.77       25.65       25.55       25.46       25.38    
        25.32       25.26       25.21       25.17       25.14       25.10       25.07       25.05       25.02      -99.90    
   8    36.09       35.91       35.57       35.10       34.55       33.93       33.28       32.62       31.96       31.33    
        30.72       30.14       29.60       29.10       28.63       28.21       27.82       27.47       27.15       26.87    
        26.62       26.39       26.19       26.02       25.87       25.74       25.62       25.53       25.44       25.37    
        25.31       25.25       25.21       25.16       25.13       25.10       25.07       25.05       25.02      -99.90    
   9    34.85       34.70       34.44       34.06       33.60       33.08       32.53       31.96       31.39       30.83    
        30.29       29.77       29.28       28.82       28.40       28.00       27.65       27.32       27.03       26.76    
        26.53       26.32       26.13       25.97       25.83       25.70       25.59       25.50       25.42       25.35    
        25.29       25.24       25.20       25.16       25.12       25.09       25.07       25.04       25.02      -99.90    
  10    33.73       33.62       33.41       33.10       32.72       32.29       31.82       31.33       30.83       30.34    
        29.86       29.40       28.95       28.54       28.15       27.79       27.47       27.17       26.89       26.65    
        26.43       26.24       26.06       25.91       25.78       25.66       25.56       25.47       25.40       25.33    
        25.28       25.23       25.19       25.15       25.12       25.09       25.07       25.04       25.02      -99.90    
  11    32.74       32.65       32.47       32.22       31.90       31.54       31.14       30.72       30.29       29.86    
        29.43       29.02       28.63       28.26       27.91       27.58       27.28       27.01       26.76       26.53    
        26.33       26.15       25.99       25.85       25.73       25.62       25.53       25.44       25.37       25.31    
        25.26       25.21       25.18       25.14       25.11       25.09       25.06       25.04       25.02      -99.90    
  12    31.84       31.77       31.62       31.41       31.15       30.84       30.50       30.14       29.77       29.40    
        29.02       28.66       28.31       27.98       27.66       27.37       27.10       26.85       26.62       26.42    
        26.23       26.07       25.92       25.79       25.68       25.58       25.49       25.42       25.35       25.29    
        25.24       25.20       25.16       25.13       25.10       25.08       25.06       25.04       25.02      -99.90    
  13    31.04       30.98       30.86       30.68       30.46       30.20       29.91       29.60       29.28       28.95    
        28.63       28.31       28.00       27.70       27.42       27.16       26.92       26.69       26.49       26.30    
        26.14       25.99       25.85       25.73       25.63       25.54       25.46       25.39       25.33       25.27    
        25.23       25.19       25.15       25.12       25.10       25.08       25.05       25.04       25.02      -99.90    
  14    30.31       30.26       30.16       30.01       29.83       29.61       29.36       29.10       28.82       28.54    
        28.26       27.98       27.70       27.44       27.19       26.96       26.74       26.54       26.36       26.19    
        26.04       25.90       25.78       25.67       25.58       25.49       25.42       25.36       25.30       25.25    
        25.21       25.17       25.14       25.12       25.09       25.07       25.05       25.03       25.02      -99.90    
  15    29.66       29.62       29.53       29.41       29.25       29.07       28.86       28.63       28.40       28.15    
        27.91       27.66       27.42       27.19       26.98       26.77       26.58       26.40       26.23       26.08    
        25.95       25.82       25.71       25.62       25.53       25.45       25.39       25.33       25.28       25.23    
        25.19       25.16       25.13       25.11       25.08       25.06       25.05       25.03       25.02      -99.90    
  16    29.08       29.04       28.97       28.87       28.74       28.58       28.40       28.21       28.00       27.79    
        27.58       27.37       27.16       26.96       26.77       26.59       26.42       26.26       26.11       25.98    
        25.86       25.75       25.65       25.56       25.48       25.41       25.35       25.30       25.25       25.21    
        25.18       25.15       25.12       25.10       25.08       25.06       25.04       25.03       25.01      -99.90    
  17    28.56       28.53       28.47       28.38       28.27       28.13       27.98       27.82       27.65       27.47    
        27.28       27.10       26.92       26.74       26.58       26.42       26.27       26.13       26.00       25.88    
        25.77       25.67       25.59       25.51       25.44       25.38       25.32       25.27       25.23       25.20    
        25.16       25.14       25.11       25.09       25.07       25.05       25.04       25.03       25.01      -99.90    
  18    28.09       28.06       28.01       27.94       27.85       27.74       27.61       27.47       27.32       27.17    
        27.01       26.85       26.69       26.54       26.40       26.26       26.13       26.00       25.89       25.79    
        25.69       25.60       25.53       25.46       25.39       25.34       25.29       25.25       25.21       25.18    
        25.15       25.12       25.10       25.08       25.07       25.05       25.04       25.02       25.01      -99.90    
  19    27.68       27.65       27.61       27.55       27.47       27.38       27.27       27.15       27.03       26.89    
        26.76       26.62       26.49       26.36       26.23       26.11       26.00       25.89       25.79       25.70    
        25.62       25.54       25.47       25.41       25.35       25.31       25.26       25.22       25.19       25.16    
        25.13       25.11       25.09       25.07       25.06       25.05       25.03       25.02       25.01      -99.90    
  20    27.31       27.29       27.26       27.21       27.14       27.06       26.97       26.87       26.76       26.65    
        26.53       26.42       26.30       26.19       26.08       25.98       25.88       25.79       25.70       25.62    
        25.55       25.48       25.42       25.37       25.32       25.27       25.23       25.20       25.17       25.14    
        25.12       25.10       25.08       25.07       25.05       25.04       25.03       25.02       25.01      -99.90    
  21    26.99       26.97       26.94       26.90       26.84       26.78       26.70       26.62       26.53       26.43    
        26.33       26.23       26.14       26.04       25.95       25.86       25.77       25.69       25.62       25.55    
        25.48       25.42       25.37       25.32       25.28       25.24       25.21       25.18       25.15       25.13    
        25.11       25.09       25.07       25.06       25.05       25.04       25.03       25.02       25.01      -99.90    
  22    26.70       26.69       26.67       26.63       26.58       26.53       26.46       26.39       26.32       26.24    
        26.15       26.07       25.99       25.90       25.82       25.75       25.67       25.60       25.54       25.48    
        25.42       25.37       25.33       25.29       25.25       25.22       25.19       25.16       25.14       25.11    
        25.10       25.08       25.07       25.05       25.04       25.03       25.02       25.02       25.01      -99.90    
  23    26.46       26.44       26.42       26.39       26.36       26.31       26.25       26.19       26.13       26.06    
        25.99       25.92       25.85       25.78       25.71       25.65       25.59       25.53       25.47       25.42    
        25.37       25.33       25.29       25.25       25.22       25.19       25.16       25.14       25.12       25.10    
        25.09       25.07       25.06       25.05       25.04       25.03       25.02       25.01       25.01      -99.90    
  24    26.24       26.23       26.21       26.19       26.16       26.12       26.07       26.02       25.97       25.91    
        25.85       25.79       25.73       25.67       25.62       25.56       25.51       25.46       25.41       25.37    
        25.32       25.29       25.25       25.22       25.19       25.17       25.14       25.12       25.11       25.09    
        25.08       25.06       25.05       25.04       25.03       25.03       25.02       25.01       25.01      -99.90    
  25    26.05       26.04       26.03       26.01       25.98       25.95       25.91       25.87       25.83       25.78    
        25.73       25.68       25.63       25.58       25.53       25.48       25.44       25.39       25.35       25.32    
        25.28       25.25       25.22       25.19       25.17       25.15       25.13       25.11       25.09       25.08    
        25.07       25.06       25.05       25.04       25.03       25.02       25.02       25.01       25.01      -99.90    
  26    25.89       25.88       25.87       25.85       25.83       25.80       25.77       25.74       25.70       25.66    
        25.62       25.58       25.54       25.49       25.45       25.41       25.38       25.34       25.31       25.27    
        25.24       25.22       25.19       25.17       25.15       25.13       25.11       25.09       25.08       25.07    
        25.06       25.05       25.04       25.03       25.03       25.02       25.01       25.01       25.00      -99.90    
  27    25.75       25.74       25.73       25.72       25.70       25.68       25.65       25.62       25.59       25.56    
        25.53       25.49       25.46       25.42       25.39       25.35       25.32       25.29       25.26       25.23    
        25.21       25.19       25.16       25.14       25.13       25.11       25.10       25.08       25.07       25.06    
        25.05       25.04       25.04       25.03       25.02       25.02       25.01       25.01       25.00      -99.90    
  28    25.63       25.62       25.62       25.60       25.59       25.57       25.55       25.53       25.50       25.47    
        25.44       25.42       25.39       25.36       25.33       25.30       25.27       25.25       25.22       25.20    
        25.18       25.16       25.14       25.12       25.11       25.09       25.08       25.07       25.06       25.05    
        25.04       25.04       25.03       25.03       25.02       25.02       25.01       25.01       25.00      -99.90    
  29    25.53       25.52       25.52       25.51       25.49       25.48       25.46       25.44       25.42       25.40    
        25.37       25.35       25.33       25.30       25.28       25.25       25.23       25.21       25.19       25.17    
        25.15       25.14       25.12       25.11       25.09       25.08       25.07       25.06       25.05       25.04    
        25.04       25.03       25.03       25.02       25.02       25.01       25.01       25.01       25.00      -99.90    
  30    25.44       25.43       25.43       25.42       25.41       25.40       25.38       25.37       25.35       25.33    
        25.31       25.29       25.27       25.25       25.23       25.21       25.20       25.18       25.16       25.14    
        25.13       25.11       25.10       25.09       25.08       25.07       25.06       25.05       25.04       25.04    
        25.03       25.03       25.02       25.02       25.02       25.01       25.01       25.01       25.00      -99.90    
  31    25.36       25.36       25.36       25.35       25.34       25.33       25.32       25.31       25.29       25.28    
        25.26       25.24       25.23       25.21       25.19       25.18       25.16       25.15       25.13       25.12    
        25.11       25.10       25.09       25.08       25.07       25.06       25.05       25.04       25.04       25.03    
        25.03       25.02       25.02       25.02       25.01       25.01       25.01       25.00       25.00      -99.90    
  32    25.30       25.30       25.29       25.29       25.28       25.27       25.26       25.25       25.24       25.23    
        25.21       25.20       25.19       25.17       25.16       25.15       25.14       25.12       25.11       25.10    
        25.09       25.08       25.07       25.06       25.06       25.05       25.04       25.04       25.03       25.03    
        25.02       25.02       25.02       25.01       25.01       25.01       25.01       25.00      -99.90      -99.90    
  33    25.24       25.24       25.24       25.23       25.23       25.22       25.21       25.21       25.20       25.19    
        25.18       25.16       25.15       25.14       25.13       25.12       25.11       25.10       25.09       25.08    
        25.07       25.07       25.06       25.05       25.05       25.04       25.04       25.03       25.03       25.02    
        25.02       25.02       25.01       25.01       25.01       25.01       25.01       25.00      -99.90      -99.90    
  34    25.19       25.19       25.19       25.19       25.18       25.18       25.17       25.16       25.16       25.15    
        25.14       25.13       25.12       25.12       25.11       25.10       25.09       25.08       25.07       25.07    
        25.06       25.05       25.05       25.04       25.04       25.03       25.03       25.03       25.02       25.02    
        25.02       25.01       25.01       25.01       25.01       25.01       25.00       25.00      -99.90      -99.90    
  35    25.15       25.15       25.15       25.15       25.14       25.14       25.14       25.13       25.12       25.12    
        25.11       25.10       25.10       25.09       25.08       25.08       25.07       25.07       25.06       25.05    
        25.05       25.04       25.04       25.03       25.03       25.03       25.02       25.02       25.02       25.02    
        25.01       25.01       25.01       25.01       25.01       25.00       25.00       25.00      -99.90      -99.90    
  36    25.12       25.12       25.11       25.11       25.11       25.11       25.10       25.10       25.09       25.09    
        25.09       25.08       25.08       25.07       25.06       25.06       25.05       25.05       25.05       25.04    
        25.04       25.03       25.03       25.03       25.02       25.02       25.02       25.02       25.01       25.01    
        25.01       25.01       25.01       25.01       25.00       25.00       25.00      -99.90      -99.90      -99.90    
  37    25.08       25.08       25.08       25.08       25.08       25.08       25.07       25.07       25.07       25.07    
        25.06       25.06       25.05       25.05       25.05       25.04       25.04       25.04       25.03       25.03    
        25.03       25.02       25.02       25.02       25.02       25.01       25.01       25.01       25.01       25.01    
        25.01       25.01       25.01       25.00       25.00       25.00      -99.90      -99.90      -99.90      -99.90    
  38    25.05       25.05       25.05       25.05       25.05       25.05       25.05       25.05       25.04       25.04    
        25.04       25.04       25.04       25.03       25.03       25.03       25.03       25.02       25.02       25.02    
        25.02       25.02       25.01       25.01       25.01       25.01       25.01       25.01       25.01       25.01    
        25.00       25.00       25.00       25.00       25.00      -99.90      -99.90      -99.90      -99.90      -99.90    
  39    25.03       25.03       25.03       25.03       25.03       25.02       25.02       25.02       25.02       25.02    
        25.02       25.02       25.02       25.02       25.02       25.01       25.01       25.01       25.01       25.01    
        25.01       25.01       25.01       25.01       25.01       25.00       25.00       25.00       25.00       25.00    
        25.00      -99.90      -99.90      -99.90      -99.90      -99.90      -99.90      -99.90      -99.90      -99.90    
  40   -99.90      -99.90      -99.90      -99.90      -99.90      -99.90      -99.90      -99.90      -99.90      -99.90    
       -99.90      -99.90      -99.90      -99.90      -99.90      -99.90      -99.90      -99.90      -99.90      -99.90    
       -99.90      -99.90      -99.90      -99.90      -99.90      -99.90      -99.90      -99.90      -99.90      -99.90    
       -99.90      -99.90      -99.90      -99.90      -99.90      -99.90      -99.90      -99.90      -99.90      -99.90    
1
              HEAD IN LAYER 10 AT END OF TIME STEP 17 IN STRESS PERIOD 3
  ---------------------------------------------------------------------------

            1           2           3           4           5           6           7           8           9          10
           11          12          13          14          15          16          17          18          19          20
           21          22          23          24          25          26          27          28          29          30
           31          32          33          34          35          36          37          38          39          40
 ........................................................................................................................
   1    49.82       48.43       45.70       43.12       40.94       39.09       37.49       36.09       34.84       33.73    
        32.74       31.85       31.04       30.32       29.67       29.08       28.56       28.09       27.68       27.31    
        26.99       26.71       26.46       26.24       26.05       25.89       25.75       25.63       25.53       25.44    
        25.36       25.30       25.24       25.19       25.15       25.12       25.08       25.05       25.03       25.00    
   2    48.43       47.20       44.80       42.50       40.50       38.77       37.25       35.91       34.70       33.62    
        32.65       31.77       30.98       30.27       29.62       29.05       28.53       28.07       27.66       27.30    
        26.98       26.69       26.45       26.23       26.05       25.89       25.75       25.63       25.52       25.44    
        25.36       25.30       25.24       25.19       25.15       25.12       25.08       25.05       25.03       25.00    
   3    45.70       44.80       43.15       41.39       39.72       38.20       36.82       35.57       34.43       33.41    
        32.47       31.63       30.86       30.16       29.54       28.97       28.47       28.02       27.62       27.26    
        26.95       26.67       26.43       26.22       26.03       25.87       25.74       25.62       25.52       25.43    
        25.36       25.29       25.24       25.19       25.15       25.11       25.08       25.05       25.03       25.00    
   4    43.12       42.50       41.39       40.08       38.74       37.45       36.23       35.10       34.06       33.10    
        32.22       31.42       30.68       30.02       29.42       28.87       28.38       27.95       27.56       27.21    
        26.90       26.63       26.40       26.19       26.01       25.86       25.72       25.61       25.51       25.42    
        25.35       25.29       25.23       25.19       25.15       25.11       25.08       25.05       25.03       25.00    
   5    40.94       40.50       39.72       38.74       37.68       36.60       35.55       34.55       33.60       32.72    
        31.90       31.15       30.46       29.83       29.26       28.74       28.27       27.85       27.48       27.14    
        26.85       26.59       26.36       26.16       25.98       25.83       25.70       25.59       25.50       25.41    
        25.34       25.28       25.23       25.18       25.14       25.11       25.08       25.05       25.03       25.00    
   6    39.09       38.77       38.20       37.45       36.60       35.71       34.81       33.93       33.09       32.29    
        31.54       30.85       30.20       29.61       29.07       28.58       28.14       27.74       27.38       27.06    
        26.78       26.53       26.31       26.12       25.95       25.81       25.68       25.57       25.48       25.40    
        25.33       25.27       25.22       25.18       25.14       25.11       25.08       25.05       25.02       25.00    
   7    37.49       37.25       36.82       36.23       35.55       34.81       34.04       33.28       32.53       31.82    
        31.14       30.51       29.91       29.37       28.86       28.40       27.99       27.61       27.27       26.97    
        26.70       26.47       26.26       26.07       25.91       25.78       25.66       25.55       25.46       25.39    
        25.32       25.26       25.21       25.17       25.14       25.10       25.07       25.05       25.02       25.00    
   8    36.09       35.91       35.57       35.10       34.55       33.93       33.28       32.62       31.97       31.33    
        30.72       30.15       29.61       29.10       28.64       28.21       27.82       27.47       27.16       26.87    
        26.62       26.40       26.20       26.02       25.87       25.74       25.63       25.53       25.44       25.37    
        25.31       25.25       25.21       25.17       25.13       25.10       25.07       25.05       25.02       25.00    
   9    34.84       34.70       34.43       34.06       33.60       33.09       32.53       31.97       31.40       30.84    
        30.29       29.78       29.29       28.83       28.40       28.01       27.65       27.32       27.03       26.76    
        26.53       26.32       26.13       25.97       25.83       25.70       25.60       25.50       25.42       25.35    
        25.29       25.24       25.20       25.16       25.12       25.10       25.07       25.04       25.02       25.00    
  10    33.73       33.62       33.41       33.10       32.72       32.29       31.82       31.33       30.84       30.34    
        29.86       29.40       28.96       28.54       28.16       27.80       27.47       27.17       26.90       26.65    
        26.43       26.24       26.07       25.91       25.78       25.66       25.56       25.47       25.40       25.33    
        25.28       25.23       25.19       25.15       25.12       25.09       25.07       25.04       25.02       25.00    
  11    32.74       32.65       32.47       32.22       31.90       31.54       31.14       30.72       30.29       29.86    
        29.44       29.03       28.63       28.26       27.91       27.59       27.29       27.01       26.76       26.54    
        26.34       26.16       26.00       25.86       25.73       25.62       25.53       25.45       25.38       25.31    
        25.26       25.22       25.18       25.14       25.11       25.09       25.06       25.04       25.02       25.00    
  12    31.85       31.77       31.63       31.42       31.15       30.85       30.51       30.15       29.78       29.40    
        29.03       28.66       28.31       27.98       27.67       27.37       27.10       26.85       26.63       26.42    
        26.24       26.07       25.93       25.80       25.68       25.58       25.49       25.42       25.35       25.29    
        25.25       25.20       25.17       25.13       25.11       25.08       25.06       25.04       25.02       25.00    
  13    31.04       30.98       30.86       30.68       30.46       30.20       29.91       29.61       29.29       28.96    
        28.63       28.31       28.00       27.71       27.43       27.17       26.92       26.70       26.49       26.31    
        26.14       25.99       25.85       25.74       25.63       25.54       25.46       25.39       25.33       25.27    
        25.23       25.19       25.15       25.12       25.10       25.08       25.05       25.04       25.02       25.00    
  14    30.32       30.27       30.16       30.02       29.83       29.61       29.37       29.10       28.83       28.54    
        28.26       27.98       27.71       27.45       27.20       26.97       26.75       26.55       26.36       26.19    
        26.04       25.91       25.78       25.68       25.58       25.50       25.42       25.36       25.30       25.25    
        25.21       25.18       25.14       25.12       25.09       25.07       25.05       25.03       25.02       25.00    
  15    29.67       29.62       29.54       29.42       29.26       29.07       28.86       28.64       28.40       28.16    
        27.91       27.67       27.43       27.20       26.98       26.77       26.58       26.40       26.24       26.09    
        25.95       25.83       25.72       25.62       25.53       25.46       25.39       25.33       25.28       25.23    
        25.20       25.16       25.13       25.11       25.09       25.07       25.05       25.03       25.02       25.00    
  16    29.08       29.05       28.97       28.87       28.74       28.58       28.40       28.21       28.01       27.80    
        27.59       27.37       27.17       26.97       26.77       26.59       26.42       26.26       26.12       25.98    
        25.86       25.75       25.65       25.56       25.48       25.42       25.35       25.30       25.26       25.21    
        25.18       25.15       25.12       25.10       25.08       25.06       25.04       25.03       25.01       25.00    
  17    28.56       28.53       28.47       28.38       28.27       28.14       27.99       27.82       27.65       27.47    
        27.29       27.10       26.92       26.75       26.58       26.42       26.27       26.13       26.00       25.88    
        25.77       25.68       25.59       25.51       25.44       25.38       25.32       25.27       25.23       25.20    
        25.16       25.14       25.11       25.09       25.07       25.06       25.04       25.03       25.01       25.00    
  18    28.09       28.07       28.02       27.95       27.85       27.74       27.61       27.47       27.32       27.17    
        27.01       26.85       26.70       26.55       26.40       26.26       26.13       26.01       25.89       25.79    
        25.69       25.61       25.53       25.46       25.40       25.34       25.29       25.25       25.21       25.18    
        25.15       25.12       25.10       25.08       25.07       25.05       25.04       25.02       25.01       25.00    
  19    27.68       27.66       27.62       27.56       27.48       27.38       27.27       27.16       27.03       26.90    
        26.76       26.63       26.49       26.36       26.24       26.12       26.00       25.89       25.79       25.70    
        25.62       25.54       25.47       25.41       25.36       25.31       25.26       25.22       25.19       25.16    
        25.13       25.11       25.09       25.08       25.06       25.05       25.03       25.02       25.01       25.00    
  20    27.31       27.30       27.26       27.21       27.14       27.06       26.97       26.87       26.76       26.65    
        26.54       26.42       26.31       26.19       26.09       25.98       25.88       25.79       25.70       25.62    
        25.55       25.48       25.42       25.37       25.32       25.27       25.24       25.20       25.17       25.14    
        25.12       25.10       25.08       25.07       25.05       25.04       25.03       25.02       25.01       25.00    
  21    26.99       26.98       26.95       26.90       26.85       26.78       26.70       26.62       26.53       26.43    
        26.34       26.24       26.14       26.04       25.95       25.86       25.77       25.69       25.62       25.55    
        25.48       25.43       25.37       25.33       25.28       25.24       25.21       25.18       25.15       25.13    
        25.11       25.09       25.07       25.06       25.05       25.04       25.03       25.02       25.01       25.00    
  22    26.71       26.69       26.67       26.63       26.59       26.53       26.47       26.40       26.32       26.24    
        26.16       26.07       25.99       25.91       25.83       25.75       25.68       25.61       25.54       25.48    
        25.43       25.38       25.33       25.29       25.25       25.22       25.19       25.16       25.14       25.12    
        25.10       25.08       25.07       25.05       25.04       25.03       25.02       25.02       25.01       25.00    
  23    26.46       26.45       26.43       26.40       26.36       26.31       26.26       26.20       26.13       26.07    
        26.00       25.93       25.85       25.78       25.72       25.65       25.59       25.53       25.47       25.42    
        25.37       25.33       25.29       25.25       25.22       25.19       25.16       25.14       25.12       25.10    
        25.09       25.07       25.06       25.05       25.04       25.03       25.02       25.01       25.01       25.00    
  24    26.24       26.23       26.22       26.19       26.16       26.12       26.07       26.02       25.97       25.91    
        25.86       25.80       25.74       25.68       25.62       25.56       25.51       25.46       25.41       25.37    
        25.33       25.29       25.25       25.22       25.19       25.17       25.14       25.12       25.11       25.09    
        25.08       25.06       25.05       25.04       25.03       25.03       25.02       25.01       25.01       25.00    
  25    26.05       26.05       26.03       26.01       25.98       25.95       25.91       25.87       25.83       25.78    
        25.73       25.68       25.63       25.58       25.53       25.48       25.44       25.40       25.36       25.32    
        25.28       25.25       25.22       25.19       25.17       25.15       25.13       25.11       25.09       25.08    
        25.07       25.06       25.05       25.04       25.03       25.02       25.02       25.01       25.01       25.00    
  26    25.89       25.89       25.87       25.86       25.83       25.81       25.78       25.74       25.70       25.66    
        25.62       25.58       25.54       25.50       25.46       25.42       25.38       25.34       25.31       25.27    
        25.24       25.22       25.19       25.17       25.15       25.13       25.11       25.10       25.08       25.07    
        25.06       25.05       25.04       25.03       25.03       25.02       25.02       25.01       25.00       25.00    
  27    25.75       25.75       25.74       25.72       25.70       25.68       25.66       25.63       25.60       25.56    
        25.53       25.49       25.46       25.42       25.39       25.35       25.32       25.29       25.26       25.24    
        25.21       25.19       25.16       25.14       25.13       25.11       25.10       25.08       25.07       25.06    
        25.05       25.04       25.04       25.03       25.02       25.02       25.01       25.01       25.00       25.00    
  28    25.63       25.63       25.62       25.61       25.59       25.57       25.55       25.53       25.50       25.47    
        25.45       25.42       25.39       25.36       25.33       25.30       25.27       25.25       25.22       25.20    
        25.18       25.16       25.14       25.12       25.11       25.10       25.08       25.07       25.06       25.05    
        25.04       25.04       25.03       25.03       25.02       25.02       25.01       25.01       25.00       25.00    
  29    25.53       25.52       25.52       25.51       25.50       25.48       25.46       25.44       25.42       25.40    
        25.38       25.35       25.33       25.30       25.28       25.26       25.23       25.21       25.19       25.17    
        25.15       25.14       25.12       25.11       25.09       25.08       25.07       25.06       25.05       25.05    
        25.04       25.03       25.03       25.02       25.02       25.01       25.01       25.01       25.00       25.00    
  30    25.44       25.44       25.43       25.42       25.41       25.40       25.39       25.37       25.35       25.33    
        25.31       25.29       25.27       25.25       25.23       25.21       25.20       25.18       25.16       25.14    
        25.13       25.12       25.10       25.09       25.08       25.07       25.06       25.05       25.05       25.04    
        25.03       25.03       25.02       25.02       25.02       25.01       25.01       25.01       25.00       25.00    
  31    25.36       25.36       25.36       25.35       25.34       25.33       25.32       25.31       25.29       25.28    
        25.26       25.25       25.23       25.21       25.20       25.18       25.16       25.15       25.13       25.12    
        25.11       25.10       25.09       25.08       25.07       25.06       25.05       25.04       25.04       25.03    
        25.03       25.02       25.02       25.02       25.01       25.01       25.01       25.00       25.00       25.00    
  32    25.30       25.30       25.29       25.29       25.28       25.27       25.26       25.25       25.24       25.23    
        25.22       25.20       25.19       25.18       25.16       25.15       25.14       25.12       25.11       25.10    
        25.09       25.08       25.07       25.06       25.06       25.05       25.04       25.04       25.03       25.03    
        25.02       25.02       25.02       25.01       25.01       25.01       25.01       25.00       25.00       25.00    
  33    25.24       25.24       25.24       25.23       25.23       25.22       25.21       25.21       25.20       25.19    
        25.18       25.17       25.15       25.14       25.13       25.12       25.11       25.10       25.09       25.08    
        25.07       25.07       25.06       25.05       25.05       25.04       25.04       25.03       25.03       25.02    
        25.02       25.02       25.01       25.01       25.01       25.01       25.01       25.00       25.00       25.00    
  34    25.19       25.19       25.19       25.19       25.18       25.18       25.17       25.17       25.16       25.15    
        25.14       25.13       25.12       25.12       25.11       25.10       25.09       25.08       25.08       25.07    
        25.06       25.05       25.05       25.04       25.04       25.03       25.03       25.03       25.02       25.02    
        25.02       25.01       25.01       25.01       25.01       25.01       25.00       25.00       25.00       25.00    
  35    25.15       25.15       25.15       25.15       25.14       25.14       25.14       25.13       25.12       25.12    
        25.11       25.11       25.10       25.09       25.09       25.08       25.07       25.07       25.06       25.05    
        25.05       25.04       25.04       25.03       25.03       25.03       25.02       25.02       25.02       25.02    
        25.01       25.01       25.01       25.01       25.01       25.00       25.00       25.00       25.00       25.00    
  36    25.12       25.12       25.11       25.11       25.11       25.11       25.10       25.10       25.10       25.09    
        25.09       25.08       25.08       25.07       25.07       25.06       25.06       25.05       25.05       25.04    
        25.04       25.03       25.03       25.03       25.02       25.02       25.02       25.02       25.01       25.01    
        25.01       25.01       25.01       25.01       25.00       25.00       25.00       25.00       25.00       25.00    
  37    25.08       25.08       25.08       25.08       25.08       25.08       25.07       25.07       25.07       25.07    
        25.06       25.06       25.05       25.05       25.05       25.04       25.04       25.04       25.03       25.03    
        25.03       25.02       25.02       25.02       25.02       25.02       25.01       25.01       25.01       25.01    
        25.01       25.01       25.01       25.00       25.00       25.00       25.00       25.00       25.00       25.00    
  38    25.05       25.05       25.05       25.05       25.05       25.05       25.05       25.05       25.04       25.04    
        25.04       25.04       25.04       25.03       25.03       25.03       25.03       25.02       25.02       25.02    
        25.02       25.02       25.01       25.01       25.01       25.01       25.01       25.01       25.01       25.01    
        25.00       25.00       25.00       25.00       25.00       25.00       25.00       25.00       25.00       25.00    
  39    25.03       25.03       25.03       25.03       25.03       25.02       25.02       25.02       25.02       25.02    
        25.02       25.02       25.02       25.02       25.02       25.01       25.01       25.01       25.01       25.01    
        25.01       25.01       25.01       25.01       25.01       25.00       25.00       25.00       25.00       25.00    
        25.00       25.00       25.00       25.00       25.00       25.00       25.00       25.00       25.00       25.00    
  40    25.00       25.00       25.00       25.00       25.00       25.00       25.00       25.00       25.00       25.00    
        25.00       25.00       25.00       25.00       25.00       25.00       25.00       25.00       25.00       25.00    
        25.00       25.00       25.00       25.00       25.00       25.00       25.00       25.00       25.00       25.00    
        25.00       25.00       25.00       25.00       25.00       25.00       25.00       25.00       25.00       25.00    
1
              HEAD IN LAYER 11 AT END OF TIME STEP 17 IN STRESS PERIOD 3
  ---------------------------------------------------------------------------

            1           2           3           4           5           6           7           8           9          10
           11          12          13          14          15          16          17          18          19          20
           21          22          23          24          25          26          27          28          29          30
           31          32          33          34          35          36          37          38          39          40
 ........................................................................................................................
   1    49.48       48.14       45.59       43.08       40.92       39.08       37.48       36.08       34.84       33.74    
        32.74       31.85       31.04       30.32       29.67       29.09       28.56       28.10       27.68       27.32    
        26.99       26.71       26.46       26.24       26.06       25.89       25.75       25.63       25.53       25.44    
        25.36       25.30       25.24       25.20       25.15       25.12       25.08       25.05       25.03       25.00    
   2    48.14       46.95       44.70       42.47       40.49       38.77       37.25       35.90       34.70       33.62    
        32.65       31.77       30.98       30.27       29.63       29.05       28.53       28.07       27.66       27.30    
        26.98       26.70       26.45       26.24       26.05       25.89       25.75       25.63       25.53       25.44    
        25.36       25.30       25.24       25.19       25.15       25.12       25.08       25.05       25.03       25.00    
   3    45.59       44.70       43.11       41.37       39.71       38.20       36.82       35.57       34.43       33.41    
        32.47       31.63       30.86       30.17       29.54       28.98       28.47       28.02       27.62       27.26    
        26.95       26.67       26.43       26.22       26.03       25.88       25.74       25.62       25.52       25.43    
        25.36       25.29       25.24       25.19       25.15       25.12       25.08       25.05       25.03       25.00    
   4    43.08       42.47       41.37       40.07       38.74       37.45       36.23       35.10       34.06       33.10    
        32.22       31.42       30.69       30.02       29.42       28.87       28.39       27.95       27.56       27.21    
        26.91       26.64       26.40       26.19       26.01       25.86       25.72       25.61       25.51       25.42    
        25.35       25.29       25.23       25.19       25.15       25.11       25.08       25.05       25.03       25.00    
   5    40.92       40.49       39.71       38.74       37.67       36.60       35.55       34.55       33.60       32.72    
        31.91       31.15       30.46       29.83       29.26       28.74       28.27       27.85       27.48       27.15    
        26.85       26.59       26.36       26.16       25.99       25.84       25.71       25.59       25.50       25.41    
        25.34       25.28       25.23       25.18       25.15       25.11       25.08       25.05       25.03       25.00    
   6    39.08       38.77       38.20       37.45       36.60       35.70       34.81       33.93       33.09       32.29    
        31.54       30.85       30.21       29.62       29.08       28.59       28.14       27.74       27.38       27.07    
        26.78       26.53       26.31       26.12       25.95       25.81       25.68       25.57       25.48       25.40    
        25.33       25.27       25.22       25.18       25.14       25.11       25.08       25.05       25.02       25.00    
   7    37.48       37.25       36.82       36.23       35.55       34.81       34.04       33.28       32.54       31.82    
        31.15       30.51       29.92       29.37       28.87       28.41       27.99       27.61       27.28       26.97    
        26.71       26.47       26.26       26.08       25.92       25.78       25.66       25.55       25.46       25.39    
        25.32       25.26       25.22       25.17       25.14       25.10       25.08       25.05       25.02       25.00    
   8    36.08       35.90       35.57       35.10       34.55       33.93       33.28       32.62       31.97       31.33    
        30.73       30.15       29.61       29.11       28.64       28.22       27.83       27.48       27.16       26.87    
        26.62       26.40       26.20       26.03       25.88       25.74       25.63       25.53       25.44       25.37    
        25.31       25.25       25.21       25.17       25.13       25.10       25.07       25.05       25.02       25.00    
   9    34.84       34.70       34.43       34.06       33.60       33.09       32.54       31.97       31.40       30.84    
        30.30       29.78       29.29       28.83       28.40       28.01       27.65       27.33       27.03       26.77    
        26.53       26.32       26.14       25.97       25.83       25.71       25.60       25.50       25.42       25.35    
        25.29       25.24       25.20       25.16       25.13       25.10       25.07       25.04       25.02       25.00    
  10    33.74       33.62       33.41       33.10       32.72       32.29       31.82       31.33       30.84       30.35    
        29.87       29.40       28.96       28.55       28.16       27.80       27.47       27.17       26.90       26.66    
        26.44       26.24       26.07       25.92       25.78       25.67       25.56       25.48       25.40       25.33    
        25.28       25.23       25.19       25.15       25.12       25.09       25.07       25.04       25.02       25.00    
  11    32.74       32.65       32.47       32.22       31.91       31.54       31.15       30.73       30.30       29.87    
        29.44       29.03       28.64       28.26       27.91       27.59       27.29       27.01       26.77       26.54    
        26.34       26.16       26.00       25.86       25.73       25.62       25.53       25.45       25.38       25.32    
        25.26       25.22       25.18       25.14       25.11       25.09       25.06       25.04       25.02       25.00    
  12    31.85       31.77       31.63       31.42       31.15       30.85       30.51       30.15       29.78       29.40    
        29.03       28.67       28.32       27.98       27.67       27.38       27.11       26.86       26.63       26.42    
        26.24       26.07       25.93       25.80       25.68       25.58       25.49       25.42       25.35       25.30    
        25.25       25.20       25.17       25.13       25.11       25.08       25.06       25.04       25.02       25.00    
  13    31.04       30.98       30.86       30.69       30.46       30.21       29.92       29.61       29.29       28.96    
        28.64       28.32       28.01       27.71       27.43       27.17       26.93       26.70       26.50       26.31    
        26.14       25.99       25.86       25.74       25.63       25.54       25.46       25.39       25.33       25.28    
        25.23       25.19       25.16       25.13       25.10       25.08       25.05       25.04       25.02       25.00    
  14    30.32       30.27       30.17       30.02       29.83       29.62       29.37       29.11       28.83       28.55    
        28.26       27.98       27.71       27.45       27.20       26.97       26.75       26.55       26.37       26.20    
        26.05       25.91       25.79       25.68       25.58       25.50       25.42       25.36       25.30       25.25    
        25.21       25.18       25.14       25.12       25.09       25.07       25.05       25.03       25.02       25.00    
  15    29.67       29.63       29.54       29.42       29.26       29.08       28.87       28.64       28.40       28.16    
        27.91       27.67       27.43       27.20       26.98       26.78       26.58       26.40       26.24       26.09    
        25.95       25.83       25.72       25.62       25.53       25.46       25.39       25.33       25.28       25.24    
        25.20       25.16       25.13       25.11       25.09       25.07       25.05       25.03       25.02       25.00    
  16    29.09       29.05       28.98       28.87       28.74       28.59       28.41       28.22       28.01       27.80    
        27.59       27.38       27.17       26.97       26.78       26.59       26.42       26.26       26.12       25.98    
        25.86       25.75       25.65       25.56       25.49       25.42       25.36       25.30       25.26       25.22    
        25.18       25.15       25.12       25.10       25.08       25.06       25.04       25.03       25.01       25.00    
  17    28.56       28.53       28.47       28.39       28.27       28.14       27.99       27.83       27.65       27.47    
        27.29       27.11       26.93       26.75       26.58       26.42       26.27       26.13       26.00       25.88    
        25.78       25.68       25.59       25.51       25.44       25.38       25.32       25.28       25.23       25.20    
        25.16       25.14       25.11       25.09       25.07       25.06       25.04       25.03       25.01       25.00    
  18    28.10       28.07       28.02       27.95       27.85       27.74       27.61       27.48       27.33       27.17    
        27.01       26.86       26.70       26.55       26.40       26.26       26.13       26.01       25.90       25.79    
        25.70       25.61       25.53       25.46       25.40       25.34       25.29       25.25       25.21       25.18    
        25.15       25.12       25.10       25.08       25.07       25.05       25.04       25.02       25.01       25.00    
  19    27.68       27.66       27.62       27.56       27.48       27.38       27.28       27.16       27.03       26.90    
        26.77       26.63       26.50       26.37       26.24       26.12       26.00       25.90       25.80       25.70    
        25.62       25.54       25.47       25.41       25.36       25.31       25.26       25.22       25.19       25.16    
        25.14       25.11       25.09       25.08       25.06       25.05       25.03       25.02       25.01       25.00    
  20    27.32       27.30       27.26       27.21       27.15       27.07       26.97       26.87       26.77       26.66    
        26.54       26.42       26.31       26.20       26.09       25.98       25.88       25.79       25.70       25.62    
        25.55       25.48       25.42       25.37       25.32       25.27       25.24       25.20       25.17       25.15    
        25.12       25.10       25.08       25.07       25.05       25.04       25.03       25.02       25.01       25.00    
  21    26.99       26.98       26.95       26.91       26.85       26.78       26.71       26.62       26.53       26.44    
        26.34       26.24       26.14       26.05       25.95       25.86       25.78       25.70       25.62       25.55    
        25.49       25.43       25.37       25.33       25.28       25.24       25.21       25.18       25.15       25.13    
        25.11       25.09       25.08       25.06       25.05       25.04       25.03       25.02       25.01       25.00    
  22    26.71       26.70       26.67       26.64       26.59       26.53       26.47       26.40       26.32       26.24    
        26.16       26.07       25.99       25.91       25.83       25.75       25.68       25.61       25.54       25.48    
        25.43       25.38       25.33       25.29       25.25       25.22       25.19       25.16       25.14       25.12    
        25.10       25.08       25.07       25.05       25.04       25.03       25.02       25.02       25.01       25.00    
  23    26.46       26.45       26.43       26.40       26.36       26.31       26.26       26.20       26.14       26.07    
        26.00       25.93       25.86       25.79       25.72       25.65       25.59       25.53       25.47       25.42    
        25.37       25.33       25.29       25.25       25.22       25.19       25.17       25.14       25.12       25.10    
        25.09       25.07       25.06       25.05       25.04       25.03       25.02       25.01       25.01       25.00    
  24    26.24       26.24       26.22       26.19       26.16       26.12       26.08       26.03       25.97       25.92    
        25.86       25.80       25.74       25.68       25.62       25.56       25.51       25.46       25.41       25.37    
        25.33       25.29       25.25       25.22       25.19       25.17       25.15       25.12       25.11       25.09    
        25.08       25.06       25.05       25.04       25.03       25.03       25.02       25.01       25.01       25.00    
  25    26.06       26.05       26.03       26.01       25.99       25.95       25.92       25.88       25.83       25.78    
        25.73       25.68       25.63       25.58       25.53       25.49       25.44       25.40       25.36       25.32    
        25.28       25.25       25.22       25.19       25.17       25.15       25.13       25.11       25.09       25.08    
        25.07       25.06       25.05       25.04       25.03       25.02       25.02       25.01       25.01       25.00    
  26    25.89       25.89       25.88       25.86       25.84       25.81       25.78       25.74       25.71       25.67    
        25.62       25.58       25.54       25.50       25.46       25.42       25.38       25.34       25.31       25.27    
        25.24       25.22       25.19       25.17       25.15       25.13       25.11       25.10       25.08       25.07    
        25.06       25.05       25.04       25.03       25.03       25.02       25.02       25.01       25.00       25.00    
  27    25.75       25.75       25.74       25.72       25.71       25.68       25.66       25.63       25.60       25.56    
        25.53       25.49       25.46       25.42       25.39       25.36       25.32       25.29       25.26       25.24    
        25.21       25.19       25.17       25.15       25.13       25.11       25.10       25.08       25.07       25.06    
        25.05       25.04       25.04       25.03       25.02       25.02       25.01       25.01       25.00       25.00    
  28    25.63       25.63       25.62       25.61       25.59       25.57       25.55       25.53       25.50       25.48    
        25.45       25.42       25.39       25.36       25.33       25.30       25.28       25.25       25.22       25.20    
        25.18       25.16       25.14       25.12       25.11       25.10       25.08       25.07       25.06       25.05    
        25.04       25.04       25.03       25.03       25.02       25.02       25.01       25.01       25.00       25.00    
  29    25.53       25.53       25.52       25.51       25.50       25.48       25.46       25.44       25.42       25.40    
        25.38       25.35       25.33       25.30       25.28       25.26       25.23       25.21       25.19       25.17    
        25.15       25.14       25.12       25.11       25.09       25.08       25.07       25.06       25.05       25.05    
        25.04       25.03       25.03       25.02       25.02       25.01       25.01       25.01       25.00       25.00    
  30    25.44       25.44       25.43       25.42       25.41       25.40       25.39       25.37       25.35       25.33    
        25.32       25.30       25.28       25.25       25.24       25.22       25.20       25.18       25.16       25.15    
        25.13       25.12       25.10       25.09       25.08       25.07       25.06       25.05       25.05       25.04    
        25.03       25.03       25.02       25.02       25.02       25.01       25.01       25.01       25.00       25.00    
  31    25.36       25.36       25.36       25.35       25.34       25.33       25.32       25.31       25.29       25.28    
        25.26       25.25       25.23       25.21       25.20       25.18       25.16       25.15       25.14       25.12    
        25.11       25.10       25.09       25.08       25.07       25.06       25.05       25.04       25.04       25.03    
        25.03       25.02       25.02       25.02       25.01       25.01       25.01       25.00       25.00       25.00    
  32    25.30       25.30       25.29       25.29       25.28       25.27       25.26       25.25       25.24       25.23    
        25.22       25.20       25.19       25.18       25.16       25.15       25.14       25.12       25.11       25.10    
        25.09       25.08       25.07       25.06       25.06       25.05       25.04       25.04       25.03       25.03    
        25.02       25.02       25.02       25.01       25.01       25.01       25.01       25.00       25.00       25.00    
  33    25.24       25.24       25.24       25.23       25.23       25.22       25.22       25.21       25.20       25.19    
        25.18       25.17       25.16       25.14       25.13       25.12       25.11       25.10       25.09       25.08    
        25.08       25.07       25.06       25.05       25.05       25.04       25.04       25.03       25.03       25.02    
        25.02       25.02       25.01       25.01       25.01       25.01       25.01       25.00       25.00       25.00    
  34    25.20       25.19       25.19       25.19       25.18       25.18       25.17       25.17       25.16       25.15    
        25.14       25.13       25.13       25.12       25.11       25.10       25.09       25.08       25.08       25.07    
        25.06       25.05       25.05       25.04       25.04       25.03       25.03       25.03       25.02       25.02    
        25.02       25.01       25.01       25.01       25.01       25.01       25.00       25.00       25.00       25.00    
  35    25.15       25.15       25.15       25.15       25.15       25.14       25.14       25.13       25.13       25.12    
        25.11       25.11       25.10       25.09       25.09       25.08       25.07       25.07       25.06       25.05    
        25.05       25.04       25.04       25.03       25.03       25.03       25.02       25.02       25.02       25.02    
        25.01       25.01       25.01       25.01       25.01       25.00       25.00       25.00       25.00       25.00    
  36    25.12       25.12       25.12       25.11       25.11       25.11       25.10       25.10       25.10       25.09    
        25.09       25.08       25.08       25.07       25.07       25.06       25.06       25.05       25.05       25.04    
        25.04       25.03       25.03       25.03       25.02       25.02       25.02       25.02       25.01       25.01    
        25.01       25.01       25.01       25.01       25.00       25.00       25.00       25.00       25.00       25.00    
  37    25.08       25.08       25.08       25.08       25.08       25.08       25.08       25.07       25.07       25.07    
        25.06       25.06       25.05       25.05       25.05       25.04       25.04       25.04       25.03       25.03    
        25.03       25.02       25.02       25.02       25.02       25.02       25.01       25.01       25.01       25.01    
        25.01       25.01       25.01       25.00       25.00       25.00       25.00       25.00       25.00       25.00    
  38    25.05       25.05       25.05       25.05       25.05       25.05       25.05       25.05       25.04       25.04    
        25.04       25.04       25.04       25.03       25.03       25.03       25.03       25.02       25.02       25.02    
        25.02       25.02       25.01       25.01       25.01       25.01       25.01       25.01       25.01       25.01    
        25.00       25.00       25.00       25.00       25.00       25.00       25.00       25.00       25.00       25.00    
  39    25.03       25.03       25.03       25.03       25.03       25.02       25.02       25.02       25.02       25.02    
        25.02       25.02       25.02       25.02       25.02       25.01       25.01       25.01       25.01       25.01    
        25.01       25.01       25.01       25.01       25.01       25.00       25.00       25.00       25.00       25.00    
        25.00       25.00       25.00       25.00       25.00       25.00       25.00       25.00       25.00       25.00    
  40    25.00       25.00       25.00       25.00       25.00       25.00       25.00       25.00       25.00       25.00    
        25.00       25.00       25.00       25.00       25.00       25.00       25.00       25.00       25.00       25.00    
        25.00       25.00       25.00       25.00       25.00       25.00       25.00       25.00       25.00       25.00    
        25.00       25.00       25.00       25.00       25.00       25.00       25.00       25.00       25.00       25.00    
1
              HEAD IN LAYER 12 AT END OF TIME STEP 17 IN STRESS PERIOD 3
  ---------------------------------------------------------------------------

            1           2           3           4           5           6           7           8           9          10
           11          12          13          14          15          16          17          18          19          20
           21          22          23          24          25          26          27          28          29          30
           31          32          33          34          35          36          37          38          39          40
 ........................................................................................................................
   1    49.23       47.93       45.50       43.05       40.91       39.07       37.48       36.08       34.84       33.74    
        32.74       31.85       31.05       30.32       29.67       29.09       28.57       28.10       27.69       27.32    
        27.00       26.71       26.46       26.25       26.06       25.90       25.75       25.63       25.53       25.44    
        25.36       25.30       25.24       25.20       25.15       25.12       25.08       25.05       25.03       25.00    
   2    47.93       46.77       44.63       42.44       40.48       38.76       37.25       35.90       34.70       33.62    
        32.65       31.77       30.98       30.27       29.63       29.05       28.53       28.07       27.66       27.30    
        26.98       26.70       26.45       26.24       26.05       25.89       25.75       25.63       25.53       25.44    
        25.36       25.30       25.24       25.19       25.15       25.12       25.08       25.05       25.03       25.00    
   3    45.50       44.63       43.07       41.35       39.71       38.19       36.81       35.57       34.43       33.41    
        32.47       31.63       30.86       30.17       29.54       28.98       28.48       28.02       27.62       27.27    
        26.95       26.67       26.43       26.22       26.04       25.88       25.74       25.62       25.52       25.43    
        25.36       25.29       25.24       25.19       25.15       25.12       25.08       25.05       25.03       25.00    
   4    43.05       42.44       41.35       40.06       38.73       37.44       36.23       35.10       34.06       33.10    
        32.22       31.42       30.69       30.02       29.42       28.88       28.39       27.95       27.56       27.21    
        26.91       26.64       26.40       26.20       26.02       25.86       25.73       25.61       25.51       25.42    
        25.35       25.29       25.24       25.19       25.15       25.11       25.08       25.05       25.03       25.00    
   5    40.91       40.48       39.71       38.73       37.67       36.60       35.55       34.54       33.60       32.72    
        31.91       31.16       30.47       29.84       29.26       28.74       28.28       27.86       27.48       27.15    
        26.85       26.59       26.36       26.16       25.99       25.84       25.71       25.59       25.50       25.41    
        25.34       25.28       25.23       25.18       25.15       25.11       25.08       25.05       25.03       25.00    
   6    39.07       38.76       38.19       37.44       36.60       35.70       34.81       33.93       33.09       32.29    
        31.54       30.85       30.21       29.62       29.08       28.59       28.14       27.74       27.39       27.07    
        26.79       26.54       26.32       26.12       25.96       25.81       25.68       25.58       25.48       25.40    
        25.33       25.27       25.22       25.18       25.14       25.11       25.08       25.05       25.02       25.00    
   7    37.48       37.25       36.81       36.23       35.55       34.81       34.04       33.28       32.54       31.82    
        31.15       30.51       29.92       29.37       28.87       28.41       27.99       27.62       27.28       26.98    
        26.71       26.47       26.26       26.08       25.92       25.78       25.66       25.55       25.46       25.39    
        25.32       25.26       25.22       25.17       25.14       25.10       25.08       25.05       25.02       25.00    
   8    36.08       35.90       35.57       35.10       34.54       33.93       33.28       32.62       31.97       31.34    
        30.73       30.15       29.61       29.11       28.64       28.22       27.83       27.48       27.16       26.88    
        26.62       26.40       26.20       26.03       25.88       25.74       25.63       25.53       25.45       25.37    
        25.31       25.25       25.21       25.17       25.13       25.10       25.07       25.05       25.02       25.00    
   9    34.84       34.70       34.43       34.06       33.60       33.09       32.54       31.97       31.40       30.84    
        30.30       29.78       29.29       28.83       28.41       28.01       27.66       27.33       27.03       26.77    
        26.53       26.32       26.14       25.97       25.83       25.71       25.60       25.50       25.42       25.35    
        25.29       25.24       25.20       25.16       25.13       25.10       25.07       25.04       25.02       25.00    
  10    33.74       33.62       33.41       33.10       32.72       32.29       31.82       31.34       30.84       30.35    
        29.87       29.40       28.96       28.55       28.16       27.80       27.47       27.17       26.90       26.66    
        26.44       26.24       26.07       25.92       25.78       25.67       25.57       25.48       25.40       25.34    
        25.28       25.23       25.19       25.15       25.12       25.09       25.07       25.04       25.02       25.00    
  11    32.74       32.65       32.47       32.22       31.91       31.54       31.15       30.73       30.30       29.87    
        29.44       29.03       28.64       28.27       27.92       27.59       27.29       27.02       26.77       26.54    
        26.34       26.16       26.00       25.86       25.73       25.63       25.53       25.45       25.38       25.32    
        25.26       25.22       25.18       25.14       25.11       25.09       25.06       25.04       25.02       25.00    
  12    31.85       31.77       31.63       31.42       31.16       30.85       30.51       30.15       29.78       29.40    
        29.03       28.67       28.32       27.99       27.67       27.38       27.11       26.86       26.63       26.43    
        26.24       26.08       25.93       25.80       25.68       25.58       25.50       25.42       25.35       25.30    
        25.25       25.20       25.17       25.13       25.11       25.08       25.06       25.04       25.02       25.00    
  13    31.05       30.98       30.86       30.69       30.47       30.21       29.92       29.61       29.29       28.96    
        28.64       28.32       28.01       27.71       27.43       27.17       26.93       26.70       26.50       26.31    
        26.14       25.99       25.86       25.74       25.63       25.54       25.46       25.39       25.33       25.28    
        25.23       25.19       25.16       25.13       25.10       25.08       25.06       25.04       25.02       25.00    
  14    30.32       30.27       30.17       30.02       29.84       29.62       29.37       29.11       28.83       28.55    
        28.27       27.99       27.71       27.45       27.20       26.97       26.75       26.55       26.37       26.20    
        26.05       25.91       25.79       25.68       25.58       25.50       25.43       25.36       25.30       25.26    
        25.21       25.18       25.14       25.12       25.09       25.07       25.05       25.03       25.02       25.00    
  15    29.67       29.63       29.54       29.42       29.26       29.08       28.87       28.64       28.41       28.16    
        27.92       27.67       27.43       27.20       26.99       26.78       26.58       26.41       26.24       26.09    
        25.95       25.83       25.72       25.62       25.53       25.46       25.39       25.33       25.28       25.24    
        25.20       25.16       25.13       25.11       25.09       25.07       25.05       25.03       25.02       25.00    
  16    29.09       29.05       28.98       28.88       28.74       28.59       28.41       28.22       28.01       27.80    
        27.59       27.38       27.17       26.97       26.78       26.60       26.42       26.27       26.12       25.99    
        25.86       25.75       25.65       25.57       25.49       25.42       25.36       25.30       25.26       25.22    
        25.18       25.15       25.12       25.10       25.08       25.06       25.04       25.03       25.01       25.00    
  17    28.57       28.53       28.48       28.39       28.28       28.14       27.99       27.83       27.66       27.47    
        27.29       27.11       26.93       26.75       26.58       26.42       26.27       26.13       26.00       25.89    
        25.78       25.68       25.59       25.51       25.44       25.38       25.32       25.28       25.23       25.20    
        25.17       25.14       25.11       25.09       25.07       25.06       25.04       25.03       25.01       25.00    
  18    28.10       28.07       28.02       27.95       27.86       27.74       27.62       27.48       27.33       27.17    
        27.02       26.86       26.70       26.55       26.41       26.27       26.13       26.01       25.90       25.79    
        25.70       25.61       25.53       25.46       25.40       25.34       25.29       25.25       25.21       25.18    
        25.15       25.12       25.10       25.08       25.07       25.05       25.04       25.02       25.01       25.00    
  19    27.69       27.66       27.62       27.56       27.48       27.39       27.28       27.16       27.03       26.90    
        26.77       26.63       26.50       26.37       26.24       26.12       26.00       25.90       25.80       25.71    
        25.62       25.54       25.48       25.41       25.36       25.31       25.26       25.23       25.19       25.16    
        25.14       25.11       25.09       25.08       25.06       25.05       25.03       25.02       25.01       25.00    
  20    27.32       27.30       27.27       27.21       27.15       27.07       26.98       26.88       26.77       26.66    
        26.54       26.43       26.31       26.20       26.09       25.99       25.89       25.79       25.71       25.63    
        25.55       25.48       25.42       25.37       25.32       25.28       25.24       25.20       25.17       25.15    
        25.12       25.10       25.08       25.07       25.05       25.04       25.03       25.02       25.01       25.00    
  21    27.00       26.98       26.95       26.91       26.85       26.79       26.71       26.62       26.53       26.44    
        26.34       26.24       26.14       26.05       25.95       25.86       25.78       25.70       25.62       25.55    
        25.49       25.43       25.38       25.33       25.28       25.25       25.21       25.18       25.15       25.13    
        25.11       25.09       25.08       25.06       25.05       25.04       25.03       25.02       25.01       25.00    
  22    26.71       26.70       26.67       26.64       26.59       26.54       26.47       26.40       26.32       26.24    
        26.16       26.08       25.99       25.91       25.83       25.75       25.68       25.61       25.54       25.48    
        25.43       25.38       25.33       25.29       25.25       25.22       25.19       25.16       25.14       25.12    
        25.10       25.08       25.07       25.05       25.04       25.03       25.02       25.02       25.01       25.00    
  23    26.46       26.45       26.43       26.40       26.36       26.32       26.26       26.20       26.14       26.07    
        26.00       25.93       25.86       25.79       25.72       25.65       25.59       25.53       25.48       25.42    
        25.38       25.33       25.29       25.25       25.22       25.19       25.17       25.14       25.12       25.10    
        25.09       25.07       25.06       25.05       25.04       25.03       25.02       25.01       25.01       25.00    
  24    26.25       26.24       26.22       26.20       26.16       26.12       26.08       26.03       25.97       25.92    
        25.86       25.80       25.74       25.68       25.62       25.57       25.51       25.46       25.41       25.37    
        25.33       25.29       25.25       25.22       25.19       25.17       25.15       25.13       25.11       25.09    
        25.08       25.06       25.05       25.04       25.03       25.03       25.02       25.01       25.01       25.00    
  25    26.06       26.05       26.04       26.02       25.99       25.96       25.92       25.88       25.83       25.78    
        25.73       25.68       25.63       25.58       25.53       25.49       25.44       25.40       25.36       25.32    
        25.28       25.25       25.22       25.19       25.17       25.15       25.13       25.11       25.09       25.08    
        25.07       25.06       25.05       25.04       25.03       25.02       25.02       25.01       25.01       25.00    
  26    25.90       25.89       25.88       25.86       25.84       25.81       25.78       25.74       25.71       25.67    
        25.63       25.58       25.54       25.50       25.46       25.42       25.38       25.34       25.31       25.28    
        25.25       25.22       25.19       25.17       25.15       25.13       25.11       25.10       25.08       25.07    
        25.06       25.05       25.04       25.03       25.03       25.02       25.02       25.01       25.00       25.00    
  27    25.75       25.75       25.74       25.73       25.71       25.68       25.66       25.63       25.60       25.57    
        25.53       25.50       25.46       25.43       25.39       25.36       25.32       25.29       25.26       25.24    
        25.21       25.19       25.17       25.15       25.13       25.11       25.10       25.08       25.07       25.06    
        25.05       25.04       25.04       25.03       25.02       25.02       25.01       25.01       25.00       25.00    
  28    25.63       25.63       25.62       25.61       25.59       25.58       25.55       25.53       25.50       25.48    
        25.45       25.42       25.39       25.36       25.33       25.30       25.28       25.25       25.23       25.20    
        25.18       25.16       25.14       25.13       25.11       25.10       25.08       25.07       25.06       25.05    
        25.04       25.04       25.03       25.03       25.02       25.02       25.01       25.01       25.00       25.00    
  29    25.53       25.53       25.52       25.51       25.50       25.48       25.46       25.45       25.42       25.40    
        25.38       25.35       25.33       25.30       25.28       25.26       25.23       25.21       25.19       25.17    
        25.15       25.14       25.12       25.11       25.09       25.08       25.07       25.06       25.05       25.05    
        25.04       25.03       25.03       25.02       25.02       25.01       25.01       25.01       25.00       25.00    
  30    25.44       25.44       25.43       25.42       25.41       25.40       25.39       25.37       25.35       25.34    
        25.32       25.30       25.28       25.26       25.24       25.22       25.20       25.18       25.16       25.15    
        25.13       25.12       25.10       25.09       25.08       25.07       25.06       25.05       25.05       25.04    
        25.03       25.03       25.02       25.02       25.02       25.01       25.01       25.01       25.00       25.00    
  31    25.36       25.36       25.36       25.35       25.34       25.33       25.32       25.31       25.29       25.28    
        25.26       25.25       25.23       25.21       25.20       25.18       25.17       25.15       25.14       25.12    
        25.11       25.10       25.09       25.08       25.07       25.06       25.05       25.04       25.04       25.03    
        25.03       25.02       25.02       25.02       25.01       25.01       25.01       25.00       25.00       25.00    
  32    25.30       25.30       25.29       25.29       25.28       25.27       25.26       25.25       25.24       25.23    
        25.22       25.20       25.19       25.18       25.16       25.15       25.14       25.12       25.11       25.10    
        25.09       25.08       25.07       25.06       25.06       25.05       25.04       25.04       25.03       25.03    
        25.02       25.02       25.02       25.01       25.01       25.01       25.01       25.00       25.00       25.00    
  33    25.24       25.24       25.24       25.24       25.23       25.22       25.22       25.21       25.20       25.19    
        25.18       25.17       25.16       25.14       25.13       25.12       25.11       25.10       25.09       25.08    
        25.08       25.07       25.06       25.05       25.05       25.04       25.04       25.03       25.03       25.02    
        25.02       25.02       25.01       25.01       25.01       25.01       25.01       25.00       25.00       25.00    
  34    25.20       25.19       25.19       25.19       25.18       25.18       25.17       25.17       25.16       25.15    
        25.14       25.13       25.13       25.12       25.11       25.10       25.09       25.08       25.08       25.07    
        25.06       25.05       25.05       25.04       25.04       25.03       25.03       25.03       25.02       25.02    
        25.02       25.01       25.01       25.01       25.01       25.01       25.00       25.00       25.00       25.00    
  35    25.15       25.15       25.15       25.15       25.15       25.14       25.14       25.13       25.13       25.12    
        25.11       25.11       25.10       25.09       25.09       25.08       25.07       25.07       25.06       25.05    
        25.05       25.04       25.04       25.03       25.03       25.03       25.02       25.02       25.02       25.02    
        25.01       25.01       25.01       25.01       25.01       25.00       25.00       25.00       25.00       25.00    
  36    25.12       25.12       25.12       25.11       25.11       25.11       25.10       25.10       25.10       25.09    
        25.09       25.08       25.08       25.07       25.07       25.06       25.06       25.05       25.05       25.04    
        25.04       25.03       25.03       25.03       25.02       25.02       25.02       25.02       25.01       25.01    
        25.01       25.01       25.01       25.01       25.00       25.00       25.00       25.00       25.00       25.00    
  37    25.08       25.08       25.08       25.08       25.08       25.08       25.08       25.07       25.07       25.07    
        25.06       25.06       25.06       25.05       25.05       25.04       25.04       25.04       25.03       25.03    
        25.03       25.02       25.02       25.02       25.02       25.02       25.01       25.01       25.01       25.01    
        25.01       25.01       25.01       25.00       25.00       25.00       25.00       25.00       25.00       25.00    
  38    25.05       25.05       25.05       25.05       25.05       25.05       25.05       25.05       25.04       25.04    
        25.04       25.04       25.04       25.03       25.03       25.03       25.03       25.02       25.02       25.02    
        25.02       25.02       25.01       25.01       25.01       25.01       25.01       25.01       25.01       25.01    
        25.00       25.00       25.00       25.00       25.00       25.00       25.00       25.00       25.00       25.00    
  39    25.03       25.03       25.03       25.03       25.03       25.02       25.02       25.02       25.02       25.02    
        25.02       25.02       25.02       25.02       25.02       25.01       25.01       25.01       25.01       25.01    
        25.01       25.01       25.01       25.01       25.01       25.00       25.00       25.00       25.00       25.00    
        25.00       25.00       25.00       25.00       25.00       25.00       25.00       25.00       25.00       25.00    
  40    25.00       25.00       25.00       25.00       25.00       25.00       25.00       25.00       25.00       25.00    
        25.00       25.00       25.00       25.00       25.00       25.00       25.00       25.00       25.00       25.00    
        25.00       25.00       25.00       25.00       25.00       25.00       25.00       25.00       25.00       25.00    
        25.00       25.00       25.00       25.00       25.00       25.00       25.00       25.00       25.00       25.00    
1
              HEAD IN LAYER 13 AT END OF TIME STEP 17 IN STRESS PERIOD 3
  ---------------------------------------------------------------------------

            1           2           3           4           5           6           7           8           9          10
           11          12          13          14          15          16          17          18          19          20
           21          22          23          24          25          26          27          28          29          30
           31          32          33          34          35          36          37          38          39          40
 ........................................................................................................................
   1    49.07       47.79       45.44       43.03       40.90       39.07       37.48       36.08       34.84       33.74    
        32.74       31.85       31.05       30.32       29.67       29.09       28.57       28.10       27.69       27.32    
        27.00       26.71       26.46       26.25       26.06       25.90       25.76       25.63       25.53       25.44    
        25.37       25.30       25.24       25.20       25.15       25.12       25.08       25.06       25.03       25.00    
   2    47.79       46.65       44.58       42.42       40.47       38.76       37.25       35.90       34.70       33.62    
        32.65       31.78       30.98       30.27       29.63       29.05       28.54       28.08       27.67       27.30    
        26.98       26.70       26.45       26.24       26.05       25.89       25.75       25.63       25.53       25.44    
        25.36       25.30       25.24       25.20       25.15       25.12       25.08       25.05       25.03       25.00    
   3    45.44       44.58       43.05       41.34       39.70       38.19       36.81       35.57       34.43       33.41    
        32.47       31.63       30.86       30.17       29.54       28.98       28.48       28.03       27.62       27.27    
        26.95       26.68       26.43       26.22       26.04       25.88       25.74       25.62       25.52       25.43    
        25.36       25.29       25.24       25.19       25.15       25.12       25.08       25.05       25.03       25.00    
   4    43.03       42.42       41.34       40.06       38.73       37.44       36.23       35.10       34.06       33.10    
        32.22       31.42       30.69       30.02       29.42       28.88       28.39       27.95       27.56       27.22    
        26.91       26.64       26.40       26.20       26.02       25.86       25.73       25.61       25.51       25.43    
        25.35       25.29       25.24       25.19       25.15       25.11       25.08       25.05       25.03       25.00    
   5    40.90       40.47       39.70       38.73       37.67       36.59       35.55       34.54       33.60       32.72    
        31.91       31.16       30.47       29.84       29.27       28.75       28.28       27.86       27.48       27.15    
        26.85       26.59       26.36       26.16       25.99       25.84       25.71       25.60       25.50       25.42    
        25.34       25.28       25.23       25.19       25.15       25.11       25.08       25.05       25.03       25.00    
   6    39.07       38.76       38.19       37.44       36.59       35.70       34.81       33.93       33.09       32.29    
        31.55       30.85       30.21       29.62       29.08       28.59       28.15       27.75       27.39       27.07    
        26.79       26.54       26.32       26.12       25.96       25.81       25.69       25.58       25.48       25.40    
        25.33       25.27       25.22       25.18       25.14       25.11       25.08       25.05       25.02       25.00    
   7    37.48       37.25       36.81       36.23       35.55       34.81       34.04       33.28       32.54       31.82    
        31.15       30.51       29.92       29.37       28.87       28.41       28.00       27.62       27.28       26.98    
        26.71       26.47       26.26       26.08       25.92       25.78       25.66       25.56       25.47       25.39    
        25.32       25.27       25.22       25.17       25.14       25.10       25.08       25.05       25.02       25.00    
   8    36.08       35.90       35.57       35.10       34.54       33.93       33.28       32.62       31.97       31.34    
        30.73       30.15       29.61       29.11       28.65       28.22       27.83       27.48       27.16       26.88    
        26.63       26.40       26.20       26.03       25.88       25.75       25.63       25.53       25.45       25.37    
        25.31       25.25       25.21       25.17       25.13       25.10       25.07       25.05       25.02       25.00    
   9    34.84       34.70       34.43       34.06       33.60       33.09       32.54       31.97       31.40       30.84    
        30.30       29.78       29.29       28.83       28.41       28.02       27.66       27.33       27.04       26.77    
        26.53       26.32       26.14       25.98       25.83       25.71       25.60       25.51       25.42       25.35    
        25.29       25.24       25.20       25.16       25.13       25.10       25.07       25.05       25.02       25.00    
  10    33.74       33.62       33.41       33.10       32.72       32.29       31.82       31.34       30.84       30.35    
        29.87       29.41       28.97       28.55       28.16       27.81       27.48       27.18       26.90       26.66    
        26.44       26.24       26.07       25.92       25.78       25.67       25.57       25.48       25.40       25.34    
        25.28       25.23       25.19       25.15       25.12       25.09       25.07       25.04       25.02       25.00    
  11    32.74       32.65       32.47       32.22       31.91       31.55       31.15       30.73       30.30       29.87    
        29.45       29.03       28.64       28.27       27.92       27.59       27.29       27.02       26.77       26.54    
        26.34       26.16       26.00       25.86       25.74       25.63       25.53       25.45       25.38       25.32    
        25.26       25.22       25.18       25.14       25.11       25.09       25.06       25.04       25.02       25.00    
  12    31.85       31.78       31.63       31.42       31.16       30.85       30.51       30.15       29.78       29.41    
        29.03       28.67       28.32       27.99       27.67       27.38       27.11       26.86       26.63       26.43    
        26.24       26.08       25.93       25.80       25.69       25.58       25.50       25.42       25.35       25.30    
        25.25       25.20       25.17       25.13       25.11       25.08       25.06       25.04       25.02       25.00    
  13    31.05       30.98       30.86       30.69       30.47       30.21       29.92       29.61       29.29       28.97    
        28.64       28.32       28.01       27.72       27.44       27.17       26.93       26.70       26.50       26.31    
        26.14       25.99       25.86       25.74       25.63       25.54       25.46       25.39       25.33       25.28    
        25.23       25.19       25.16       25.13       25.10       25.08       25.06       25.04       25.02       25.00    
  14    30.32       30.27       30.17       30.02       29.84       29.62       29.37       29.11       28.83       28.55    
        28.27       27.99       27.72       27.45       27.21       26.97       26.75       26.55       26.37       26.20    
        26.05       25.91       25.79       25.68       25.58       25.50       25.43       25.36       25.30       25.26    
        25.21       25.18       25.14       25.12       25.09       25.07       25.05       25.03       25.02       25.00    
  15    29.67       29.63       29.54       29.42       29.27       29.08       28.87       28.65       28.41       28.16    
        27.92       27.67       27.44       27.21       26.99       26.78       26.59       26.41       26.24       26.09    
        25.95       25.83       25.72       25.62       25.54       25.46       25.39       25.33       25.28       25.24    
        25.20       25.16       25.13       25.11       25.09       25.07       25.05       25.03       25.02       25.00    
  16    29.09       29.05       28.98       28.88       28.75       28.59       28.41       28.22       28.02       27.81    
        27.59       27.38       27.17       26.97       26.78       26.60       26.43       26.27       26.12       25.99    
        25.86       25.75       25.65       25.57       25.49       25.42       25.36       25.30       25.26       25.22    
        25.18       25.15       25.12       25.10       25.08       25.06       25.04       25.03       25.01       25.00    
  17    28.57       28.54       28.48       28.39       28.28       28.15       28.00       27.83       27.66       27.48    
        27.29       27.11       26.93       26.75       26.59       26.43       26.28       26.14       26.01       25.89    
        25.78       25.68       25.59       25.51       25.44       25.38       25.32       25.28       25.23       25.20    
        25.17       25.14       25.11       25.09       25.07       25.06       25.04       25.03       25.01       25.00    
  18    28.10       28.08       28.03       27.95       27.86       27.75       27.62       27.48       27.33       27.18    
        27.02       26.86       26.70       26.55       26.41       26.27       26.14       26.01       25.90       25.79    
        25.70       25.61       25.53       25.46       25.40       25.34       25.29       25.25       25.21       25.18    
        25.15       25.13       25.10       25.08       25.07       25.05       25.04       25.02       25.01       25.00    
  19    27.69       27.67       27.62       27.56       27.48       27.39       27.28       27.16       27.04       26.90    
        26.77       26.63       26.50       26.37       26.24       26.12       26.01       25.90       25.80       25.71    
        25.62       25.55       25.48       25.41       25.36       25.31       25.26       25.23       25.19       25.16    
        25.14       25.11       25.09       25.08       25.06       25.05       25.03       25.02       25.01       25.00    
  20    27.32       27.30       27.27       27.22       27.15       27.07       26.98       26.88       26.77       26.66    
        26.54       26.43       26.31       26.20       26.09       25.99       25.89       25.79       25.71       25.63    
        25.55       25.48       25.42       25.37       25.32       25.28       25.24       25.20       25.17       25.15    
        25.12       25.10       25.08       25.07       25.05       25.04       25.03       25.02       25.01       25.00    
  21    27.00       26.98       26.95       26.91       26.85       26.79       26.71       26.63       26.53       26.44    
        26.34       26.24       26.14       26.05       25.95       25.86       25.78       25.70       25.62       25.55    
        25.49       25.43       25.38       25.33       25.28       25.25       25.21       25.18       25.15       25.13    
        25.11       25.09       25.08       25.06       25.05       25.04       25.03       25.02       25.01       25.00    
  22    26.71       26.70       26.68       26.64       26.59       26.54       26.47       26.40       26.32       26.24    
        26.16       26.08       25.99       25.91       25.83       25.75       25.68       25.61       25.55       25.48    
        25.43       25.38       25.33       25.29       25.25       25.22       25.19       25.16       25.14       25.12    
        25.10       25.08       25.07       25.06       25.04       25.03       25.02       25.02       25.01       25.00    
  23    26.46       26.45       26.43       26.40       26.36       26.32       26.26       26.20       26.14       26.07    
        26.00       25.93       25.86       25.79       25.72       25.65       25.59       25.53       25.48       25.42    
        25.38       25.33       25.29       25.25       25.22       25.19       25.17       25.14       25.12       25.10    
        25.09       25.07       25.06       25.05       25.04       25.03       25.02       25.01       25.01       25.00    
  24    26.25       26.24       26.22       26.20       26.16       26.12       26.08       26.03       25.98       25.92    
        25.86       25.80       25.74       25.68       25.62       25.57       25.51       25.46       25.41       25.37    
        25.33       25.29       25.25       25.22       25.19       25.17       25.15       25.13       25.11       25.09    
        25.08       25.06       25.05       25.04       25.03       25.03       25.02       25.01       25.01       25.00    
  25    26.06       26.05       26.04       26.02       25.99       25.96       25.92       25.88       25.83       25.78    
        25.74       25.69       25.63       25.58       25.54       25.49       25.44       25.40       25.36       25.32    
        25.28       25.25       25.22       25.19       25.17       25.15       25.13       25.11       25.09       25.08    
        25.07       25.06       25.05       25.04       25.03       25.02       25.02       25.01       25.01       25.00    
  26    25.90       25.89       25.88       25.86       25.84       25.81       25.78       25.75       25.71       25.67    
        25.63       25.58       25.54       25.50       25.46       25.42       25.38       25.34       25.31       25.28    
        25.25       25.22       25.19       25.17       25.15       25.13       25.11       25.10       25.08       25.07    
        25.06       25.05       25.04       25.03       25.03       25.02       25.02       25.01       25.00       25.00    
  27    25.76       25.75       25.74       25.73       25.71       25.69       25.66       25.63       25.60       25.57    
        25.53       25.50       25.46       25.43       25.39       25.36       25.32       25.29       25.26       25.24    
        25.21       25.19       25.17       25.15       25.13       25.11       25.10       25.08       25.07       25.06    
        25.05       25.04       25.04       25.03       25.02       25.02       25.01       25.01       25.00       25.00    
  28    25.63       25.63       25.62       25.61       25.60       25.58       25.56       25.53       25.51       25.48    
        25.45       25.42       25.39       25.36       25.33       25.30       25.28       25.25       25.23       25.20    
        25.18       25.16       25.14       25.13       25.11       25.10       25.08       25.07       25.06       25.05    
        25.04       25.04       25.03       25.03       25.02       25.02       25.01       25.01       25.00       25.00    
  29    25.53       25.53       25.52       25.51       25.50       25.48       25.47       25.45       25.42       25.40    
        25.38       25.35       25.33       25.30       25.28       25.26       25.23       25.21       25.19       25.17    
        25.15       25.14       25.12       25.11       25.09       25.08       25.07       25.06       25.05       25.05    
        25.04       25.03       25.03       25.02       25.02       25.01       25.01       25.01       25.00       25.00    
  30    25.44       25.44       25.43       25.43       25.42       25.40       25.39       25.37       25.35       25.34    
        25.32       25.30       25.28       25.26       25.24       25.22       25.20       25.18       25.16       25.15    
        25.13       25.12       25.10       25.09       25.08       25.07       25.06       25.05       25.05       25.04    
        25.03       25.03       25.02       25.02       25.02       25.01       25.01       25.01       25.00       25.00    
  31    25.37       25.36       25.36       25.35       25.34       25.33       25.32       25.31       25.29       25.28    
        25.26       25.25       25.23       25.21       25.20       25.18       25.17       25.15       25.14       25.12    
        25.11       25.10       25.09       25.08       25.07       25.06       25.05       25.04       25.04       25.03    
        25.03       25.02       25.02       25.02       25.01       25.01       25.01       25.00       25.00       25.00    
  32    25.30       25.30       25.29       25.29       25.28       25.27       25.27       25.25       25.24       25.23    
        25.22       25.20       25.19       25.18       25.16       25.15       25.14       25.13       25.11       25.10    
        25.09       25.08       25.07       25.06       25.06       25.05       25.04       25.04       25.03       25.03    
        25.02       25.02       25.02       25.01       25.01       25.01       25.01       25.00       25.00       25.00    
  33    25.24       25.24       25.24       25.24       25.23       25.22       25.22       25.21       25.20       25.19    
        25.18       25.17       25.16       25.14       25.13       25.12       25.11       25.10       25.09       25.08    
        25.08       25.07       25.06       25.05       25.05       25.04       25.04       25.03       25.03       25.02    
        25.02       25.02       25.01       25.01       25.01       25.01       25.01       25.00       25.00       25.00    
  34    25.20       25.20       25.19       25.19       25.19       25.18       25.17       25.17       25.16       25.15    
        25.14       25.13       25.13       25.12       25.11       25.10       25.09       25.08       25.08       25.07    
        25.06       25.06       25.05       25.04       25.04       25.03       25.03       25.03       25.02       25.02    
        25.02       25.01       25.01       25.01       25.01       25.01       25.00       25.00       25.00       25.00    
  35    25.15       25.15       25.15       25.15       25.15       25.14       25.14       25.13       25.13       25.12    
        25.11       25.11       25.10       25.09       25.09       25.08       25.07       25.07       25.06       25.05    
        25.05       25.04       25.04       25.03       25.03       25.03       25.02       25.02       25.02       25.02    
        25.01       25.01       25.01       25.01       25.01       25.00       25.00       25.00       25.00       25.00    
  36    25.12       25.12       25.12       25.11       25.11       25.11       25.10       25.10       25.10       25.09    
        25.09       25.08       25.08       25.07       25.07       25.06       25.06       25.05       25.05       25.04    
        25.04       25.03       25.03       25.03       25.02       25.02       25.02       25.02       25.01       25.01    
        25.01       25.01       25.01       25.01       25.00       25.00       25.00       25.00       25.00       25.00    
  37    25.08       25.08       25.08       25.08       25.08       25.08       25.08       25.07       25.07       25.07    
        25.06       25.06       25.06       25.05       25.05       25.04       25.04       25.04       25.03       25.03    
        25.03       25.02       25.02       25.02       25.02       25.02       25.01       25.01       25.01       25.01    
        25.01       25.01       25.01       25.00       25.00       25.00       25.00       25.00       25.00       25.00    
  38    25.06       25.05       25.05       25.05       25.05       25.05       25.05       25.05       25.05       25.04    
        25.04       25.04       25.04       25.03       25.03       25.03       25.03       25.02       25.02       25.02    
        25.02       25.02       25.01       25.01       25.01       25.01       25.01       25.01       25.01       25.01    
        25.00       25.00       25.00       25.00       25.00       25.00       25.00       25.00       25.00       25.00    
  39    25.03       25.03       25.03       25.03       25.03       25.02       25.02       25.02       25.02       25.02    
        25.02       25.02       25.02       25.02       25.02       25.01       25.01       25.01       25.01       25.01    
        25.01       25.01       25.01       25.01       25.01       25.00       25.00       25.00       25.00       25.00    
        25.00       25.00       25.00       25.00       25.00       25.00       25.00       25.00       25.00       25.00    
  40    25.00       25.00       25.00       25.00       25.00       25.00       25.00       25.00       25.00       25.00    
        25.00       25.00       25.00       25.00       25.00       25.00       25.00       25.00       25.00       25.00    
        25.00       25.00       25.00       25.00       25.00       25.00       25.00       25.00       25.00       25.00    
        25.00       25.00       25.00       25.00       25.00       25.00       25.00       25.00       25.00       25.00    
1
              HEAD IN LAYER 14 AT END OF TIME STEP 17 IN STRESS PERIOD 3
  ---------------------------------------------------------------------------

            1           2           3           4           5           6           7           8           9          10
           11          12          13          14          15          16          17          18          19          20
           21          22          23          24          25          26          27          28          29          30
           31          32          33          34          35          36          37          38          39          40
 ........................................................................................................................
   1    48.99       47.72       45.41       43.02       40.90       39.06       37.47       36.08       34.84       33.74    
        32.74       31.85       31.05       30.32       29.67       29.09       28.57       28.10       27.69       27.32    
        27.00       26.71       26.47       26.25       26.06       25.90       25.76       25.63       25.53       25.44    
        25.37       25.30       25.24       25.20       25.15       25.12       25.08       25.06       25.03       25.00    
   2    47.72       46.60       44.56       42.42       40.47       38.76       37.24       35.90       34.70       33.62    
        32.65       31.78       30.98       30.27       29.63       29.05       28.54       28.08       27.67       27.30    
        26.98       26.70       26.45       26.24       26.05       25.89       25.75       25.63       25.53       25.44    
        25.36       25.30       25.24       25.20       25.15       25.12       25.08       25.05       25.03       25.00    
   3    45.41       44.56       43.04       41.34       39.70       38.19       36.81       35.57       34.43       33.41    
        32.48       31.63       30.86       30.17       29.55       28.98       28.48       28.03       27.62       27.27    
        26.95       26.68       26.43       26.22       26.04       25.88       25.74       25.62       25.52       25.43    
        25.36       25.30       25.24       25.19       25.15       25.12       25.08       25.05       25.03       25.00    
   4    43.02       42.42       41.34       40.05       38.73       37.44       36.23       35.10       34.06       33.10    
        32.22       31.42       30.69       30.02       29.42       28.88       28.39       27.95       27.56       27.22    
        26.91       26.64       26.40       26.20       26.02       25.86       25.73       25.61       25.51       25.43    
        25.35       25.29       25.24       25.19       25.15       25.11       25.08       25.05       25.03       25.00    
   5    40.90       40.47       39.70       38.73       37.67       36.59       35.55       34.54       33.60       32.72    
        31.91       31.16       30.47       29.84       29.27       28.75       28.28       27.86       27.48       27.15    
        26.85       26.59       26.36       26.16       25.99       25.84       25.71       25.60       25.50       25.42    
        25.34       25.28       25.23       25.19       25.15       25.11       25.08       25.05       25.03       25.00    
   6    39.06       38.76       38.19       37.44       36.59       35.70       34.81       33.93       33.09       32.29    
        31.55       30.85       30.21       29.62       29.08       28.59       28.15       27.75       27.39       27.07    
        26.79       26.54       26.32       26.13       25.96       25.81       25.69       25.58       25.48       25.40    
        25.33       25.27       25.22       25.18       25.14       25.11       25.08       25.05       25.02       25.00    
   7    37.47       37.24       36.81       36.23       35.55       34.81       34.04       33.28       32.54       31.83    
        31.15       30.51       29.92       29.38       28.87       28.41       28.00       27.62       27.28       26.98    
        26.71       26.47       26.26       26.08       25.92       25.78       25.66       25.56       25.47       25.39    
        25.32       25.27       25.22       25.17       25.14       25.10       25.08       25.05       25.02       25.00    
   8    36.08       35.90       35.57       35.10       34.54       33.93       33.28       32.62       31.97       31.34    
        30.73       30.15       29.61       29.11       28.65       28.22       27.83       27.48       27.16       26.88    
        26.63       26.40       26.20       26.03       25.88       25.75       25.63       25.53       25.45       25.37    
        25.31       25.25       25.21       25.17       25.13       25.10       25.07       25.05       25.02       25.00    
   9    34.84       34.70       34.43       34.06       33.60       33.09       32.54       31.97       31.40       30.84    
        30.30       29.78       29.29       28.83       28.41       28.02       27.66       27.33       27.04       26.77    
        26.54       26.33       26.14       25.98       25.83       25.71       25.60       25.51       25.42       25.35    
        25.29       25.24       25.20       25.16       25.13       25.10       25.07       25.05       25.02       25.00    
  10    33.74       33.62       33.41       33.10       32.72       32.29       31.83       31.34       30.84       30.35    
        29.87       29.41       28.97       28.55       28.16       27.81       27.48       27.18       26.90       26.66    
        26.44       26.24       26.07       25.92       25.79       25.67       25.57       25.48       25.40       25.34    
        25.28       25.23       25.19       25.15       25.12       25.09       25.07       25.04       25.02       25.00    
  11    32.74       32.65       32.48       32.22       31.91       31.55       31.15       30.73       30.30       29.87    
        29.45       29.04       28.64       28.27       27.92       27.59       27.29       27.02       26.77       26.54    
        26.34       26.16       26.00       25.86       25.74       25.63       25.53       25.45       25.38       25.32    
        25.26       25.22       25.18       25.14       25.11       25.09       25.06       25.04       25.02       25.00    
  12    31.85       31.78       31.63       31.42       31.16       30.85       30.51       30.15       29.78       29.41    
        29.04       28.67       28.32       27.99       27.67       27.38       27.11       26.86       26.63       26.43    
        26.24       26.08       25.93       25.80       25.69       25.58       25.50       25.42       25.35       25.30    
        25.25       25.20       25.17       25.13       25.11       25.08       25.06       25.04       25.02       25.00    
  13    31.05       30.98       30.86       30.69       30.47       30.21       29.92       29.61       29.29       28.97    
        28.64       28.32       28.01       27.72       27.44       27.17       26.93       26.71       26.50       26.31    
        26.15       25.99       25.86       25.74       25.63       25.54       25.46       25.39       25.33       25.28    
        25.23       25.19       25.16       25.13       25.10       25.08       25.06       25.04       25.02       25.00    
  14    30.32       30.27       30.17       30.02       29.84       29.62       29.38       29.11       28.83       28.55    
        28.27       27.99       27.72       27.46       27.21       26.97       26.76       26.55       26.37       26.20    
        26.05       25.91       25.79       25.68       25.58       25.50       25.43       25.36       25.31       25.26    
        25.21       25.18       25.15       25.12       25.09       25.07       25.05       25.03       25.02       25.00    
  15    29.67       29.63       29.55       29.42       29.27       29.08       28.87       28.65       28.41       28.16    
        27.92       27.67       27.44       27.21       26.99       26.78       26.59       26.41       26.24       26.09    
        25.95       25.83       25.72       25.62       25.54       25.46       25.39       25.33       25.28       25.24    
        25.20       25.16       25.13       25.11       25.09       25.07       25.05       25.03       25.02       25.00    
  16    29.09       29.05       28.98       28.88       28.75       28.59       28.41       28.22       28.02       27.81    
        27.59       27.38       27.17       26.97       26.78       26.60       26.43       26.27       26.12       25.99    
        25.86       25.75       25.66       25.57       25.49       25.42       25.36       25.30       25.26       25.22    
        25.18       25.15       25.12       25.10       25.08       25.06       25.04       25.03       25.01       25.00    
  17    28.57       28.54       28.48       28.39       28.28       28.15       28.00       27.83       27.66       27.48    
        27.29       27.11       26.93       26.76       26.59       26.43       26.28       26.14       26.01       25.89    
        25.78       25.68       25.59       25.51       25.44       25.38       25.33       25.28       25.23       25.20    
        25.17       25.14       25.11       25.09       25.07       25.06       25.04       25.03       25.01       25.00    
  18    28.10       28.08       28.03       27.95       27.86       27.75       27.62       27.48       27.33       27.18    
        27.02       26.86       26.71       26.55       26.41       26.27       26.14       26.01       25.90       25.79    
        25.70       25.61       25.53       25.46       25.40       25.34       25.29       25.25       25.21       25.18    
        25.15       25.13       25.10       25.08       25.07       25.05       25.04       25.02       25.01       25.00    
  19    27.69       27.67       27.62       27.56       27.48       27.39       27.28       27.16       27.04       26.90    
        26.77       26.63       26.50       26.37       26.24       26.12       26.01       25.90       25.80       25.71    
        25.62       25.55       25.48       25.41       25.36       25.31       25.26       25.23       25.19       25.16    
        25.14       25.11       25.09       25.08       25.06       25.05       25.03       25.02       25.01       25.00    
  20    27.32       27.30       27.27       27.22       27.15       27.07       26.98       26.88       26.77       26.66    
        26.54       26.43       26.31       26.20       26.09       25.99       25.89       25.79       25.71       25.63    
        25.55       25.49       25.42       25.37       25.32       25.28       25.24       25.20       25.17       25.15    
        25.12       25.10       25.08       25.07       25.05       25.04       25.03       25.02       25.01       25.00    
  21    27.00       26.98       26.95       26.91       26.85       26.79       26.71       26.63       26.54       26.44    
        26.34       26.24       26.15       26.05       25.95       25.86       25.78       25.70       25.62       25.55    
        25.49       25.43       25.38       25.33       25.28       25.25       25.21       25.18       25.15       25.13    
        25.11       25.09       25.08       25.06       25.05       25.04       25.03       25.02       25.01       25.00    
  22    26.71       26.70       26.68       26.64       26.59       26.54       26.47       26.40       26.33       26.24    
        26.16       26.08       25.99       25.91       25.83       25.75       25.68       25.61       25.55       25.49    
        25.43       25.38       25.33       25.29       25.25       25.22       25.19       25.16       25.14       25.12    
        25.10       25.08       25.07       25.06       25.04       25.03       25.02       25.02       25.01       25.00    
  23    26.47       26.45       26.43       26.40       26.36       26.32       26.26       26.20       26.14       26.07    
        26.00       25.93       25.86       25.79       25.72       25.66       25.59       25.53       25.48       25.42    
        25.38       25.33       25.29       25.25       25.22       25.19       25.17       25.14       25.12       25.10    
        25.09       25.07       25.06       25.05       25.04       25.03       25.02       25.01       25.01       25.00    
  24    26.25       26.24       26.22       26.20       26.16       26.13       26.08       26.03       25.98       25.92    
        25.86       25.80       25.74       25.68       25.62       25.57       25.51       25.46       25.41       25.37    
        25.33       25.29       25.25       25.22       25.19       25.17       25.15       25.13       25.11       25.09    
        25.08       25.06       25.05       25.04       25.03       25.03       25.02       25.01       25.01       25.00    
  25    26.06       26.05       26.04       26.02       25.99       25.96       25.92       25.88       25.83       25.79    
        25.74       25.69       25.63       25.58       25.54       25.49       25.44       25.40       25.36       25.32    
        25.28       25.25       25.22       25.19       25.17       25.15       25.13       25.11       25.09       25.08    
        25.07       25.06       25.05       25.04       25.03       25.02       25.02       25.01       25.01       25.00    
  26    25.90       25.89       25.88       25.86       25.84       25.81       25.78       25.75       25.71       25.67    
        25.63       25.58       25.54       25.50       25.46       25.42       25.38       25.34       25.31       25.28    
        25.25       25.22       25.19       25.17       25.15       25.13       25.11       25.10       25.08       25.07    
        25.06       25.05       25.04       25.03       25.03       25.02       25.02       25.01       25.00       25.00    
  27    25.76       25.75       25.74       25.73       25.71       25.69       25.66       25.63       25.60       25.57    
        25.53       25.50       25.46       25.43       25.39       25.36       25.33       25.29       25.26       25.24    
        25.21       25.19       25.17       25.15       25.13       25.11       25.10       25.08       25.07       25.06    
        25.05       25.04       25.04       25.03       25.02       25.02       25.01       25.01       25.00       25.00    
  28    25.63       25.63       25.62       25.61       25.60       25.58       25.56       25.53       25.51       25.48    
        25.45       25.42       25.39       25.36       25.33       25.30       25.28       25.25       25.23       25.20    
        25.18       25.16       25.14       25.13       25.11       25.10       25.08       25.07       25.06       25.05    
        25.05       25.04       25.03       25.03       25.02       25.02       25.01       25.01       25.00       25.00    
  29    25.53       25.53       25.52       25.51       25.50       25.48       25.47       25.45       25.42       25.40    
        25.38       25.35       25.33       25.31       25.28       25.26       25.23       25.21       25.19       25.17    
        25.15       25.14       25.12       25.11       25.09       25.08       25.07       25.06       25.05       25.05    
        25.04       25.03       25.03       25.02       25.02       25.01       25.01       25.01       25.00       25.00    
  30    25.44       25.44       25.43       25.43       25.42       25.40       25.39       25.37       25.35       25.34    
        25.32       25.30       25.28       25.26       25.24       25.22       25.20       25.18       25.16       25.15    
        25.13       25.12       25.10       25.09       25.08       25.07       25.06       25.05       25.05       25.04    
        25.03       25.03       25.02       25.02       25.02       25.01       25.01       25.01       25.00       25.00    
  31    25.37       25.36       25.36       25.35       25.34       25.33       25.32       25.31       25.29       25.28    
        25.26       25.25       25.23       25.21       25.20       25.18       25.17       25.15       25.14       25.12    
        25.11       25.10       25.09       25.08       25.07       25.06       25.05       25.05       25.04       25.03    
        25.03       25.02       25.02       25.02       25.01       25.01       25.01       25.00       25.00       25.00    
  32    25.30       25.30       25.30       25.29       25.28       25.27       25.27       25.25       25.24       25.23    
        25.22       25.20       25.19       25.18       25.16       25.15       25.14       25.13       25.11       25.10    
        25.09       25.08       25.07       25.06       25.06       25.05       25.04       25.04       25.03       25.03    
        25.02       25.02       25.02       25.01       25.01       25.01       25.01       25.00       25.00       25.00    
  33    25.24       25.24       25.24       25.24       25.23       25.22       25.22       25.21       25.20       25.19    
        25.18       25.17       25.16       25.15       25.13       25.12       25.11       25.10       25.09       25.08    
        25.08       25.07       25.06       25.05       25.05       25.04       25.04       25.03       25.03       25.02    
        25.02       25.02       25.01       25.01       25.01       25.01       25.01       25.00       25.00       25.00    
  34    25.20       25.20       25.19       25.19       25.19       25.18       25.17       25.17       25.16       25.15    
        25.14       25.13       25.13       25.12       25.11       25.10       25.09       25.08       25.08       25.07    
        25.06       25.06       25.05       25.04       25.04       25.03       25.03       25.03       25.02       25.02    
        25.02       25.01       25.01       25.01       25.01       25.01       25.00       25.00       25.00       25.00    
  35    25.15       25.15       25.15       25.15       25.15       25.14       25.14       25.13       25.13       25.12    
        25.11       25.11       25.10       25.09       25.09       25.08       25.07       25.07       25.06       25.05    
        25.05       25.04       25.04       25.03       25.03       25.03       25.02       25.02       25.02       25.02    
        25.01       25.01       25.01       25.01       25.01       25.00       25.00       25.00       25.00       25.00    
  36    25.12       25.12       25.12       25.11       25.11       25.11       25.10       25.10       25.10       25.09    
        25.09       25.08       25.08       25.07       25.07       25.06       25.06       25.05       25.05       25.04    
        25.04       25.03       25.03       25.03       25.02       25.02       25.02       25.02       25.01       25.01    
        25.01       25.01       25.01       25.01       25.00       25.00       25.00       25.00       25.00       25.00    
  37    25.08       25.08       25.08       25.08       25.08       25.08       25.08       25.07       25.07       25.07    
        25.06       25.06       25.06       25.05       25.05       25.04       25.04       25.04       25.03       25.03    
        25.03       25.02       25.02       25.02       25.02       25.02       25.01       25.01       25.01       25.01    
        25.01       25.01       25.01       25.00       25.00       25.00       25.00       25.00       25.00       25.00    
  38    25.06       25.05       25.05       25.05       25.05       25.05       25.05       25.05       25.05       25.04    
        25.04       25.04       25.04       25.03       25.03       25.03       25.03       25.02       25.02       25.02    
        25.02       25.02       25.01       25.01       25.01       25.01       25.01       25.01       25.01       25.01    
        25.00       25.00       25.00       25.00       25.00       25.00       25.00       25.00       25.00       25.00    
  39    25.03       25.03       25.03       25.03       25.03       25.02       25.02       25.02       25.02       25.02    
        25.02       25.02       25.02       25.02       25.02       25.01       25.01       25.01       25.01       25.01    
        25.01       25.01       25.01       25.01       25.01       25.00       25.00       25.00       25.00       25.00    
        25.00       25.00       25.00       25.00       25.00       25.00       25.00       25.00       25.00       25.00    
  40    25.00       25.00       25.00       25.00       25.00       25.00       25.00       25.00       25.00       25.00    
        25.00       25.00       25.00       25.00       25.00       25.00       25.00       25.00       25.00       25.00    
        25.00       25.00       25.00       25.00       25.00       25.00       25.00       25.00       25.00       25.00    
        25.00       25.00       25.00       25.00       25.00       25.00       25.00       25.00       25.00       25.00    

 HEAD WILL BE SAVED ON UNIT   51 AT END OF TIME STEP   17, STRESS PERIOD    3
1
  VOLUMETRIC BUDGET FOR ENTIRE MODEL AT END OF TIME STEP   17, STRESS PERIOD   3
  ------------------------------------------------------------------------------

     CUMULATIVE VOLUMES      L**3       RATES FOR THIS TIME STEP      L**3/T
     ------------------                 ------------------------

           IN:                                      IN:
           ---                                      ---
             STORAGE     =       8.9209E-02               STORAGE     =       9.5402E-20
       CONSTANT HEAD     =       6.8556E-10         CONSTANT HEAD     =           0.0000
            RECHARGE     =     8218751.5000              RECHARGE     =        3125.0000

                TOTAL IN =     8218751.5000                  TOTAL IN =        3125.0000

          OUT:                                     OUT:
          ----                                     ----
             STORAGE     =     8147148.0000               STORAGE     =        3010.0786
       CONSTANT HEAD     =       71601.4766         CONSTANT HEAD     =         114.9063
            RECHARGE     =           0.0000              RECHARGE     =           0.0000

               TOTAL OUT =     8218749.5000                 TOTAL OUT =        3124.9849

                IN - OUT =           2.0000                  IN - OUT =       1.5137E-02

     PERCENT DISCREPANCY =           0.00         PERCENT DISCREPANCY =           0.00






         TIME SUMMARY AT END OF TIME STEP   17 IN STRESS PERIOD    3
                    SECONDS     MINUTES      HOURS       DAYS        YEARS
                    -----------------------------------------------------------
   TIME STEP LENGTH 9.76828E+06 1.62805E+05  2713.4      113.06     0.30954    
 STRESS PERIOD TIME 1.66061E+08 2.76768E+06  46128.      1922.0      5.2621    
         TOTAL TIME 2.27232E+08 3.78720E+06  63120.      2630.0      7.2005    
1


 Run end date and time (yyyy/mm/dd hh:mm:ss): 2023/05/11  8:47:54
 Elapsed run time: 10.346 Seconds

